*SPEF "IEEE 1481-1998"
*DESIGN "FIFO_2clk"
*DATE "Tue Oct  3 19:17:05 2017"
*VENDOR "Silicon Perspective, A Cadence Company"
*PROGRAM "First Encounter"
*VERSION "08.10-s372_1"
*DESIGN_FLOW "COUPLING C" "PIN_CAP NONE" "NAME_SCOPE LOCAL"
*DIVIDER /
*DELIMITER :
*BUS_DELIMITER []
*T_UNIT 1 NS
*C_UNIT 1 PF
*R_UNIT 1 OHM
*L_UNIT 1 HENRY

*NAME_MAP

*1 EMPTY
*2 FE_PHN0_n56
*3 FE_PHN100_mem_32_
*4 FE_PHN101_mem_105_
*5 FE_PHN102_mem_30_
*6 FE_PHN103_mem_122_
*7 FE_PHN104_mem_62_
*8 FE_PHN105_mem_80_
*9 FE_PHN106_mem_39_
*10 FE_PHN107_mem_27_
*11 FE_PHN108_mem_72_
*12 FE_PHN109_mem_19_
*13 FE_PHN10_n49
*14 FE_PHN110_mem_6_
*15 FE_PHN111_mem_64_
*16 FE_PHN112_mem_0_
*17 FE_PHN113_mem_31_
*18 FE_PHN114_mem_58_
*19 FE_PHN115_mem_50_
*20 FE_PHN116_mem_54_
*21 FE_PHN117_mem_65_
*22 FE_PHN118_mem_71_
*23 FE_PHN119_mem_37_
*24 FE_PHN11_n47
*25 FE_PHN120_mem_90_
*26 FE_PHN121_mem_15_
*27 FE_PHN122_mem_46_
*28 FE_PHN123_mem_56_
*29 FE_PHN124_mem_96_
*30 FE_PHN125_mem_57_
*31 FE_PHN126_mem_88_
*32 FE_PHN127_mem_63_
*33 FE_PHN128_mem_87_
*34 FE_PHN129_mem_43_
*35 FE_PHN12_n50
*36 FE_PHN130_mem_18_
*37 FE_PHN131_mem_127_
*38 FE_PHN132_mem_29_
*39 FE_PHN133_mem_13_
*40 FE_PHN134_mem_33_
*41 FE_PHN135_mem_81_
*42 FE_PHN136_mem_22_
*43 FE_PHN137_mem_45_
*44 FE_PHN138_mem_97_
*45 FE_PHN139_mem_103_
*46 FE_PHN13_n48
*47 FE_PHN140_mem_89_
*48 FE_PHN141_mem_48_
*49 FE_PHN142_mem_118_
*50 FE_PHN143_mem_59_
*51 FE_PHN144_mem_66_
*52 FE_PHN145_mem_104_
*53 FE_PHN146_mem_7_
*54 FE_PHN147_mem_2_
*55 FE_PHN148_mem_9_
*56 FE_PHN149_mem_106_
*57 FE_PHN14_n56
*58 FE_PHN150_mem_74_
*59 FE_PHN151_mem_73_
*60 FE_PHN152_mem_86_
*61 FE_PHN153_mem_21_
*62 FE_PHN154_mem_120_
*63 FE_PHN155_mem_112_
*64 FE_PHN156_mem_126_
*65 FE_PHN157_mem_25_
*66 FE_PHN158_mem_119_
*67 FE_PHN159_mem_26_
*68 FE_PHN15_n332
*69 FE_PHN160_mem_10_
*70 FE_PHN161_mem_94_
*71 FE_PHN162_n537
*72 FE_PHN163_mem_27_
*73 FE_PHN164_mem_8_
*74 FE_PHN165_mem_74_
*75 FE_PHN166_mem_35_
*76 FE_PHN167_mem_66_
*77 FE_PHN168_mem_0_
*78 FE_PHN169_mem_59_
*79 FE_PHN16_wr_ptr_4_
*80 FE_PHN170_mem_22_
*81 FE_PHN171_mem_44_
*82 FE_PHN172_mem_88_
*83 FE_PHN173_mem_106_
*84 FE_PHN174_mem_37_
*85 FE_PHN175_mem_10_
*86 FE_PHN176_mem_63_
*87 FE_PHN177_mem_94_
*88 FE_PHN178_mem_24_
*89 FE_PHN179_mem_31_
*90 FE_PHN17_n333
*91 FE_PHN180_mem_82_
*92 FE_PHN181_mem_112_
*93 FE_PHN182_mem_14_
*94 FE_PHN183_mem_48_
*95 FE_PHN184_mem_32_
*96 FE_PHN185_mem_5_
*97 FE_PHN186_mem_19_
*98 FE_PHN187_mem_26_
*99 FE_PHN188_mem_119_
*100 FE_PHN189_mem_45_
*101 FE_PHN18_n331
*102 FE_PHN190_mem_90_
*103 FE_PHN191_mem_7_
*104 FE_PHN192_mem_16_
*105 FE_PHN193_mem_18_
*106 FE_PHN194_mem_21_
*107 FE_PHN195_mem_29_
*108 FE_PHN196_mem_46_
*109 FE_PHN197_mem_25_
*110 FE_PHN198_mem_122_
*111 FE_PHN199_mem_80_
*112 FE_PHN19_n327
*113 FE_PHN1_n331
*114 FE_PHN200_mem_98_
*115 FE_PHN201_mem_56_
*116 FE_PHN202_mem_6_
*117 FE_PHN203_mem_40_
*118 FE_PHN204_mem_50_
*119 FE_PHN205_mem_43_
*120 FE_PHN206_mem_127_
*121 FE_PHN207_mem_54_
*122 FE_PHN208_mem_38_
*123 FE_PHN209_mem_13_
*124 FE_PHN20_n330
*125 FE_PHN210_mem_42_
*126 FE_PHN211_mem_126_
*127 FE_PHN212_mem_64_
*128 FE_PHN213_mem_86_
*129 FE_PHN214_mem_121_
*130 FE_PHN215_mem_30_
*131 FE_PHN216_mem_120_
*132 FE_PHN217_mem_118_
*133 FE_PHN218_mem_34_
*134 FE_PHN219_mem_87_
*135 FE_PHN21_n49
*136 FE_PHN220_mem_15_
*137 FE_PHN221_mem_113_
*138 FE_PHN222_mem_62_
*139 FE_PHN223_mem_72_
*140 FE_PHN224_mem_91_
*141 FE_PHN225_mem_99_
*142 FE_PHN226_mem_28_
*143 FE_PHN227_mem_125_
*144 FE_PHN228_mem_123_
*145 FE_PHN229_mem_60_
*146 FE_PHN22_n46
*147 FE_PHN230_mem_97_
*148 FE_PHN231_mem_107_
*149 FE_PHN232_mem_85_
*150 FE_PHN233_mem_104_
*151 FE_PHN234_mem_100_
*152 FE_PHN235_mem_12_
*153 FE_PHN236_mem_124_
*154 FE_PHN237_mem_4_
*155 FE_PHN238_mem_52_
*156 FE_PHN239_mem_3_
*157 FE_PHN23_n48
*158 FE_PHN240_mem_75_
*159 FE_PHN241_mem_51_
*160 FE_PHN242_mem_11_
*161 FE_PHN243_mem_111_
*162 FE_PHN244_mem_108_
*163 FE_PHN245_mem_93_
*164 FE_PHN246_mem_58_
*165 FE_PHN247_mem_101_
*166 FE_PHN248_mem_95_
*167 FE_PHN249_mem_84_
*168 FE_PHN24_n50
*169 FE_PHN250_mem_83_
*170 FE_PHN251_mem_23_
*171 FE_PHN252_mem_69_
*172 FE_PHN253_mem_61_
*173 FE_PHN254_mem_68_
*174 FE_PHN255_mem_117_
*175 FE_PHN256_mem_49_
*176 FE_PHN257_mem_67_
*177 FE_PHN258_mem_20_
*178 FE_PHN259_mem_73_
*179 FE_PHN25_n47
*180 FE_PHN260_mem_96_
*181 FE_PHN261_mem_36_
*182 FE_PHN26_n49
*183 FE_PHN27_n47
*184 FE_PHN28_n46
*185 FE_PHN29_n48
*186 FE_PHN2_wr_ptr_0_
*187 FE_PHN30_n50
*188 FE_PHN31_wr_ptr_0_
*189 FE_PHN32_n330
*190 FE_PHN33_n333
*191 FE_PHN34_n327
*192 FE_PHN35_n331
*193 FE_PHN36_n46
*194 FE_PHN37_n47
*195 FE_PHN38_n49
*196 FE_PHN39_n48
*197 FE_PHN3_n333
*198 FE_PHN40_n50
*199 FE_PHN41_n333
*200 FE_PHN42_n330
*201 FE_PHN43_n327
*202 FE_PHN44_n331
*203 FE_PHN45_n47
*204 FE_PHN46_n48
*205 FE_PHN47_n50
*206 FE_PHN48_n330
*207 FE_PHN49_n327
*208 FE_PHN4_n327
*209 FE_PHN50_n331
*210 FE_PHN51_n47
*211 FE_PHN52_n327
*212 FE_PHN53_n47
*213 FE_PHN54_n48
*214 FE_PHN55_n50
*215 FE_PHN56_n46
*216 FE_PHN57_n49
*217 FE_PHN58_n47
*218 FE_PHN59_n48
*219 FE_PHN5_n332
*220 FE_PHN60_n50
*221 FE_PHN61_n46
*222 FE_PHN62_n49
*223 FE_PHN63_n47
*224 FE_PHN64_n48
*225 FE_PHN65_n50
*226 FE_PHN66_n46
*227 FE_PHN67_n49
*228 FE_PHN68_n47
*229 FE_PHN69_n48
*230 FE_PHN6_wr_ptr_2_
*231 FE_PHN70_n46
*232 FE_PHN71_n49
*233 FE_PHN72_n46
*234 FE_PHN73_n49
*235 FE_PHN74_n46
*236 FE_PHN75_n46
*237 FE_PHN76_n46
*238 FE_PHN77_mem_49_
*239 FE_PHN78_mem_1_
*240 FE_PHN79_mem_111_
*241 FE_PHN7_wr_ptr_4_
*242 FE_PHN80_mem_24_
*243 FE_PHN81_mem_17_
*244 FE_PHN82_mem_14_
*245 FE_PHN83_mem_114_
*246 FE_PHN84_mem_42_
*247 FE_PHN85_mem_35_
*248 FE_PHN86_mem_82_
*249 FE_PHN87_mem_121_
*250 FE_PHN88_mem_41_
*251 FE_PHN89_mem_113_
*252 FE_PHN8_n330
*253 FE_PHN90_mem_95_
*254 FE_PHN91_mem_38_
*255 FE_PHN92_mem_40_
*256 FE_PHN93_mem_5_
*257 FE_PHN94_mem_98_
*258 FE_PHN95_mem_47_
*259 FE_PHN96_mem_8_
*260 FE_PHN97_mem_16_
*261 FE_PHN98_mem_79_
*262 FE_PHN99_mem_34_
*263 FE_PHN9_n46
*264 FULL
*265 add_34_carry[2]
*266 add_34_carry[3]
*267 add_34_carry[4]
*268 add_35_carry[2]
*269 add_35_carry[3]
*270 add_35_carry[4]
*271 add_55_carry_4_
*272 data_in[0]
*273 data_in[1]
*274 data_in[2]
*275 data_in[3]
*276 data_in[4]
*277 data_in[5]
*278 data_in[6]
*279 data_in[7]
*280 data_out[0]
*281 data_out[1]
*282 data_out[2]
*283 data_out[3]
*284 data_out[4]
*285 data_out[5]
*286 data_out[6]
*287 data_out[7]
*288 diff[0]
*289 diff[1]
*290 diff[2]
*291 diff[3]
*292 diff[4]
*293 empty_bar
*294 full_bar
*295 get
*296 mem[0]
*297 mem[100]
*298 mem[101]
*299 mem[102]
*300 mem[103]
*301 mem[104]
*302 mem[105]
*303 mem[106]
*304 mem[107]
*305 mem[108]
*306 mem[109]
*307 mem[10]
*308 mem[110]
*309 mem[111]
*310 mem[112]
*311 mem[113]
*312 mem[114]
*313 mem[115]
*314 mem[116]
*315 mem[117]
*316 mem[118]
*317 mem[119]
*318 mem[11]
*319 mem[120]
*320 mem[121]
*321 mem[122]
*322 mem[123]
*323 mem[124]
*324 mem[125]
*325 mem[126]
*326 mem[127]
*327 mem[12]
*328 mem[13]
*329 mem[14]
*330 mem[15]
*331 mem[16]
*332 mem[17]
*333 mem[18]
*334 mem[19]
*335 mem[1]
*336 mem[20]
*337 mem[21]
*338 mem[22]
*339 mem[23]
*340 mem[24]
*341 mem[25]
*342 mem[26]
*343 mem[27]
*344 mem[28]
*345 mem[29]
*346 mem[2]
*347 mem[30]
*348 mem[31]
*349 mem[32]
*350 mem[33]
*351 mem[34]
*352 mem[35]
*353 mem[36]
*354 mem[37]
*355 mem[38]
*356 mem[39]
*357 mem[3]
*358 mem[40]
*359 mem[41]
*360 mem[42]
*361 mem[43]
*362 mem[44]
*363 mem[45]
*364 mem[46]
*365 mem[47]
*366 mem[48]
*367 mem[49]
*368 mem[4]
*369 mem[50]
*370 mem[51]
*371 mem[52]
*372 mem[53]
*373 mem[54]
*374 mem[55]
*375 mem[56]
*376 mem[57]
*377 mem[58]
*378 mem[59]
*379 mem[5]
*380 mem[60]
*381 mem[61]
*382 mem[62]
*383 mem[63]
*384 mem[64]
*385 mem[65]
*386 mem[66]
*387 mem[67]
*388 mem[68]
*389 mem[69]
*390 mem[6]
*391 mem[70]
*392 mem[71]
*393 mem[72]
*394 mem[73]
*395 mem[74]
*396 mem[75]
*397 mem[76]
*398 mem[77]
*399 mem[78]
*400 mem[79]
*401 mem[7]
*402 mem[80]
*403 mem[81]
*404 mem[82]
*405 mem[83]
*406 mem[84]
*407 mem[85]
*408 mem[86]
*409 mem[87]
*410 mem[88]
*411 mem[89]
*412 mem[8]
*413 mem[90]
*414 mem[91]
*415 mem[92]
*416 mem[93]
*417 mem[94]
*418 mem[95]
*419 mem[96]
*420 mem[97]
*421 mem[98]
*422 mem[99]
*423 mem[9]
*424 n100
*425 n101
*426 n102
*427 n103
*428 n14
*429 n15
*430 n16
*431 n17
*432 n172
*433 n173
*434 n174
*435 n175
*436 n176
*437 n177
*438 n178
*439 n179
*440 n180
*441 n181
*442 n182
*443 n183
*444 n184
*445 n185
*446 n186
*447 n187
*448 n188
*449 n189
*450 n190
*451 n191
*452 n192
*453 n193
*454 n194
*455 n195
*456 n196
*457 n197
*458 n198
*459 n199
*460 n20
*461 n200
*462 n201
*463 n202
*464 n203
*465 n204
*466 n205
*467 n206
*468 n207
*469 n208
*470 n209
*471 n21
*472 n210
*473 n211
*474 n212
*475 n213
*476 n214
*477 n215
*478 n216
*479 n217
*480 n218
*481 n219
*482 n220
*483 n221
*484 n222
*485 n223
*486 n224
*487 n225
*488 n226
*489 n227
*490 n228
*491 n229
*492 n230
*493 n231
*494 n232
*495 n233
*496 n234
*497 n235
*498 n236
*499 n237
*500 n238
*501 n239
*502 n240
*503 n241
*504 n242
*505 n243
*506 n244
*507 n245
*508 n246
*509 n247
*510 n248
*511 n249
*512 n250
*513 n251
*514 n252
*515 n253
*516 n254
*517 n255
*518 n256
*519 n257
*520 n258
*521 n259
*522 n260
*523 n261
*524 n262
*525 n263
*526 n264
*527 n265
*528 n266
*529 n267
*530 n268
*531 n269
*532 n270
*533 n271
*534 n272
*535 n273
*536 n274
*537 n275
*538 n276
*539 n277
*540 n278
*541 n279
*542 n280
*543 n281
*544 n282
*545 n283
*546 n284
*547 n285
*548 n286
*549 n287
*550 n288
*551 n289
*552 n290
*553 n291
*554 n292
*555 n293
*556 n294
*557 n295
*558 n296
*559 n297
*560 n298
*561 n299
*562 n300
*563 n301
*564 n302
*565 n303
*566 n304
*567 n305
*568 n306
*569 n307
*570 n308
*571 n309
*572 n310
*573 n311
*574 n312
*575 n313
*576 n314
*577 n315
*578 n316
*579 n317
*580 n318
*581 n319
*582 n320
*583 n321
*584 n322
*585 n323
*586 n324
*587 n325
*588 n326
*589 n327
*590 n328
*591 n329
*592 n330
*593 n331
*594 n332
*595 n333
*596 n334
*597 n335
*598 n336
*599 n337
*600 n338
*601 n339
*602 n340
*603 n341
*604 n342
*605 n343
*606 n344
*607 n345
*608 n346
*609 n347
*610 n348
*611 n349
*612 n350
*613 n351
*614 n352
*615 n353
*616 n354
*617 n355
*618 n356
*619 n357
*620 n358
*621 n359
*622 n360
*623 n361
*624 n362
*625 n363
*626 n364
*627 n365
*628 n366
*629 n367
*630 n368
*631 n369
*632 n370
*633 n371
*634 n372
*635 n373
*636 n374
*637 n375
*638 n376
*639 n377
*640 n378
*641 n379
*642 n380
*643 n381
*644 n382
*645 n383
*646 n384
*647 n385
*648 n386
*649 n387
*650 n388
*651 n389
*652 n390
*653 n391
*654 n392
*655 n393
*656 n394
*657 n395
*658 n396
*659 n397
*660 n398
*661 n399
*662 n400
*663 n401
*664 n402
*665 n403
*666 n404
*667 n405
*668 n406
*669 n407
*670 n408
*671 n409
*672 n410
*673 n411
*674 n412
*675 n413
*676 n414
*677 n415
*678 n416
*679 n417
*680 n418
*681 n419
*682 n420
*683 n421
*684 n422
*685 n423
*686 n424
*687 n425
*688 n426
*689 n427
*690 n428
*691 n429
*692 n430
*693 n431
*694 n432
*695 n433
*696 n434
*697 n435
*698 n436
*699 n437
*700 n438
*701 n439
*702 n440
*703 n441
*704 n442
*705 n443
*706 n444
*707 n445
*708 n446
*709 n447
*710 n448
*711 n449
*712 n450
*713 n451
*714 n452
*715 n453
*716 n454
*717 n455
*718 n456
*719 n457
*720 n458
*721 n459
*722 n46
*723 n460
*724 n461
*725 n462
*726 n463
*727 n464
*728 n465
*729 n466
*730 n467
*731 n468
*732 n469
*733 n47
*734 n470
*735 n471
*736 n472
*737 n473
*738 n474
*739 n475
*740 n476
*741 n477
*742 n478
*743 n479
*744 n48
*745 n480
*746 n481
*747 n482
*748 n483
*749 n484
*750 n485
*751 n486
*752 n487
*753 n488
*754 n489
*755 n49
*756 n490
*757 n491
*758 n492
*759 n498
*760 n499
*761 n50
*762 n500
*763 n501
*764 n502
*765 n503
*766 n504
*767 n505
*768 n506
*769 n507
*770 n508
*771 n509
*772 n51
*773 n510
*774 n511
*775 n512
*776 n513
*777 n514
*778 n515
*779 n516
*780 n517
*781 n518
*782 n519
*783 n52
*784 n520
*785 n521
*786 n522
*787 n523
*788 n524
*789 n525
*790 n526
*791 n527
*792 n528
*793 n529
*794 n53
*795 n530
*796 n531
*797 n532
*798 n533
*799 n534
*800 n535
*801 n536
*802 n537
*803 n538
*804 n539
*805 n54
*806 n540
*807 n541
*808 n542
*809 n543
*810 n544
*811 n545
*812 n546
*813 n547
*814 n548
*815 n549
*816 n55
*817 n550
*818 n551
*819 n552
*820 n553
*821 n554
*822 n555
*823 n556
*824 n557
*825 n558
*826 n559
*827 n56
*828 n560
*829 n561
*830 n562
*831 n563
*832 n564
*833 n565
*834 n566
*835 n567
*836 n568
*837 n569
*838 n570
*839 n571
*840 n572
*841 n573
*842 n574
*843 n575
*844 n576
*845 n577
*846 n578
*847 n579
*848 n580
*849 n581
*850 n582
*851 n583
*852 n584
*853 n585
*854 n586
*855 n587
*856 n588
*857 n589
*858 n590
*859 n591
*860 n592
*861 n593
*862 n594
*863 n595
*864 n596
*865 n597
*866 n598
*867 n599
*868 n600
*869 n601
*870 n602
*871 n603
*872 n604
*873 n605
*874 n606
*875 n607
*876 n608
*877 n609
*878 n610
*879 n611
*880 n612
*881 n613
*882 n614
*883 n615
*884 n616
*885 n617
*886 n618
*887 n619
*888 n620
*889 n621
*890 n622
*891 n623
*892 n624
*893 n628
*894 n629
*895 n630
*896 n631
*897 n632
*898 n633
*899 n634
*900 n635
*901 n636
*902 n637
*903 n638
*904 n639
*905 n640
*906 n641
*907 n642
*908 n643
*909 n644
*910 n645
*911 n646
*912 n647
*913 n648
*914 n649
*915 n650
*916 n651
*917 n652
*918 n653
*919 n654
*920 n655
*921 n656
*922 n657
*923 n658
*924 n659
*925 n660
*926 n661
*927 n662
*928 n663
*929 n664
*930 n665
*931 n666
*932 n667
*933 n668
*934 n669
*935 n670
*936 n671
*937 n672
*938 n673
*939 n674
*940 n675
*941 n676
*942 n677
*943 n678
*944 n679
*945 n680
*946 n681
*947 n682
*948 n683
*949 n684
*950 n685
*951 n686
*952 n687
*953 n688
*954 n689
*955 n690
*956 n691
*957 n692
*958 n693
*959 n694
*960 n695
*961 n696
*962 n697
*963 n698
*964 n699
*965 n700
*966 n701
*967 n702
*968 n703
*969 n704
*970 n705
*971 n706
*972 n707
*973 n708
*974 n709
*975 n710
*976 n711
*977 n712
*978 n713
*979 n714
*980 n715
*981 n716
*982 n717
*983 n718
*984 n719
*985 n720
*986 n721
*987 n722
*988 n723
*989 n724
*990 n725
*991 n726
*992 n727
*993 n728
*994 n729
*995 n730
*996 n731
*997 n732
*998 n733
*999 n734
*1000 n735
*1001 n736
*1002 n737
*1003 n738
*1004 n739
*1005 n740
*1006 n741
*1007 n742
*1008 n743
*1009 n744
*1010 n745
*1011 n746
*1012 n747
*1013 n748
*1014 n749
*1015 n750
*1016 n751
*1017 n752
*1018 n753
*1019 n754
*1020 n755
*1021 n756
*1022 n757
*1023 n758
*1024 n759
*1025 n760
*1026 n761
*1027 n762
*1028 n763
*1029 n764
*1030 n765
*1031 n766
*1032 n767
*1033 n768
*1034 n769
*1035 n770
*1036 n771
*1037 n772
*1038 n773
*1039 n774
*1040 n775
*1041 n776
*1042 n777
*1043 n778
*1044 n779
*1045 n780
*1046 n781
*1047 n782
*1048 n788
*1049 n789
*1050 n790
*1051 n791
*1052 n792
*1053 n793
*1054 n794
*1055 n795
*1056 n796
*1057 n797
*1058 n798
*1059 n799
*1060 n800
*1061 n801
*1062 n802
*1063 n803
*1064 n804
*1065 n805
*1066 n806
*1067 n807
*1068 n808
*1069 n809
*1070 n810
*1071 n811
*1072 n813
*1073 n814
*1074 n816
*1075 n817
*1076 n818
*1077 n819
*1078 n85
*1079 n86
*1080 n87
*1081 n88
*1082 n89
*1083 n90
*1084 n91
*1085 n92
*1086 n93
*1087 n94
*1088 n95
*1089 n96
*1090 n97
*1091 n98
*1092 n99
*1093 put
*1094 rclk
*1095 rclk__L1_N0
*1096 rclk__L2_N0
*1097 rd_ptr[0]
*1098 rd_ptr[1]
*1099 rd_ptr[2]
*1100 rd_ptr[3]
*1101 rd_ptr[4]
*1102 rd_ptr_bin_p1[1]
*1103 rd_ptr_bin_p1[2]
*1104 rd_ptr_bin_p1[3]
*1105 rd_ptr_bin_p1[4]
*1106 rd_ptr_p1[0]
*1107 rd_ptr_p1[1]
*1108 rd_ptr_p1[2]
*1109 rd_ptr_p1[3]
*1110 rd_ptr_s[0]
*1111 rd_ptr_s[1]
*1112 rd_ptr_s[2]
*1113 rd_ptr_s[3]
*1114 rd_ptr_s[4]
*1115 rd_ptr_ss[0]
*1116 rd_ptr_ss[1]
*1117 rd_ptr_ss[2]
*1118 rd_ptr_ss[3]
*1119 rd_ptr_ss[4]
*1120 rd_ptr_ss_bin[0]
*1121 rd_ptr_ss_bin[1]
*1122 rd_ptr_ss_bin[2]
*1123 rd_ptr_ss_bin[3]
*1124 reset
*1125 sub_38_carry[1]
*1126 sub_38_carry[2]
*1127 sub_38_carry[3]
*1128 sub_38_carry[4]
*1129 wclk
*1130 wclk__L1_N0
*1131 wclk__L2_N0
*1132 wclk__L2_N1
*1133 wr_ptr[0]
*1134 wr_ptr[1]
*1135 wr_ptr[2]
*1136 wr_ptr[3]
*1137 wr_ptr[4]
*1138 wr_ptr_bin[0]
*1139 wr_ptr_bin[1]
*1140 wr_ptr_bin[2]
*1141 wr_ptr_bin[3]
*1142 wr_ptr_bin_p1[0]
*1143 wr_ptr_bin_p1[1]
*1144 wr_ptr_bin_p1[2]
*1145 wr_ptr_bin_p1[3]
*1146 wr_ptr_bin_p1[4]
*1147 wr_ptr_p1[0]
*1148 wr_ptr_p1[1]
*1149 wr_ptr_p1[2]
*1150 wr_ptr_p1[3]
*1151 wr_ptr_s[0]
*1152 wr_ptr_s[1]
*1153 wr_ptr_s[2]
*1154 wr_ptr_s[3]
*1155 wr_ptr_s[4]
*1156 wr_ptr_ss[0]
*1157 wr_ptr_ss[1]
*1158 wr_ptr_ss[2]
*1159 wr_ptr_ss[3]
*1160 wr_ptr_ss[4]
*1161 wr_ptr_ss_bin[0]
*1162 wr_ptr_ss_bin[1]
*1163 wr_ptr_ss_bin[2]
*1164 wr_ptr_ss_bin[3]
*1165 FE_PHC261_mem_36_
*1166 FE_PHC260_mem_96_
*1167 FE_PHC259_mem_73_
*1168 FE_PHC258_mem_20_
*1169 FE_PHC257_mem_67_
*1170 FE_PHC256_mem_49_
*1171 FE_PHC255_mem_117_
*1172 FE_PHC254_mem_68_
*1173 FE_PHC253_mem_61_
*1174 FE_PHC252_mem_69_
*1175 FE_PHC251_mem_23_
*1176 FE_PHC250_mem_83_
*1177 FE_PHC249_mem_84_
*1178 FE_PHC248_mem_95_
*1179 FE_PHC247_mem_101_
*1180 FE_PHC246_mem_58_
*1181 FE_PHC245_mem_93_
*1182 FE_PHC244_mem_108_
*1183 FE_PHC243_mem_111_
*1184 FE_PHC242_mem_11_
*1185 FE_PHC241_mem_51_
*1186 FE_PHC240_mem_75_
*1187 FE_PHC239_mem_3_
*1188 FE_PHC238_mem_52_
*1189 FE_PHC237_mem_4_
*1190 FE_PHC236_mem_124_
*1191 FE_PHC235_mem_12_
*1192 FE_PHC234_mem_100_
*1193 FE_PHC233_mem_104_
*1194 FE_PHC232_mem_85_
*1195 FE_PHC231_mem_107_
*1196 FE_PHC230_mem_97_
*1197 FE_PHC229_mem_60_
*1198 FE_PHC228_mem_123_
*1199 FE_PHC227_mem_125_
*1200 FE_PHC226_mem_28_
*1201 FE_PHC225_mem_99_
*1202 FE_PHC224_mem_91_
*1203 FE_PHC223_mem_72_
*1204 FE_PHC222_mem_62_
*1205 FE_PHC221_mem_113_
*1206 FE_PHC220_mem_15_
*1207 FE_PHC219_mem_87_
*1208 FE_PHC218_mem_34_
*1209 FE_PHC217_mem_118_
*1210 FE_PHC216_mem_120_
*1211 FE_PHC215_mem_30_
*1212 FE_PHC214_mem_121_
*1213 FE_PHC213_mem_86_
*1214 FE_PHC212_mem_64_
*1215 FE_PHC211_mem_126_
*1216 FE_PHC210_mem_42_
*1217 FE_PHC209_mem_13_
*1218 FE_PHC208_mem_38_
*1219 FE_PHC207_mem_54_
*1220 FE_PHC206_mem_127_
*1221 FE_PHC205_mem_43_
*1222 FE_PHC204_mem_50_
*1223 FE_PHC203_mem_40_
*1224 FE_PHC202_mem_6_
*1225 FE_PHC201_mem_56_
*1226 FE_PHC200_mem_98_
*1227 FE_PHC199_mem_80_
*1228 FE_PHC198_mem_122_
*1229 FE_PHC197_mem_25_
*1230 FE_PHC196_mem_46_
*1231 FE_PHC195_mem_29_
*1232 FE_PHC194_mem_21_
*1233 FE_PHC193_mem_18_
*1234 FE_PHC192_mem_16_
*1235 FE_PHC191_mem_7_
*1236 FE_PHC190_mem_90_
*1237 FE_PHC189_mem_45_
*1238 FE_PHC188_mem_119_
*1239 FE_PHC187_mem_26_
*1240 FE_PHC186_mem_19_
*1241 FE_PHC185_mem_5_
*1242 FE_PHC184_mem_32_
*1243 FE_PHC183_mem_48_
*1244 FE_PHC182_mem_14_
*1245 FE_PHC181_mem_112_
*1246 FE_PHC180_mem_82_
*1247 FE_PHC179_mem_31_
*1248 FE_PHC178_mem_24_
*1249 FE_PHC177_mem_94_
*1250 FE_PHC176_mem_63_
*1251 FE_PHC175_mem_10_
*1252 FE_PHC174_mem_37_
*1253 FE_PHC173_mem_106_
*1254 FE_PHC172_mem_88_
*1255 FE_PHC171_mem_44_
*1256 FE_PHC170_mem_22_
*1257 FE_PHC169_mem_59_
*1258 FE_PHC168_mem_0_
*1259 FE_PHC167_mem_66_
*1260 FE_PHC166_mem_35_
*1261 FE_PHC165_mem_74_
*1262 FE_PHC164_mem_8_
*1263 FE_PHC163_mem_27_
*1264 FE_PHC162_n537
*1265 FE_PHC161_mem_94_
*1266 FE_PHC160_mem_10_
*1267 FE_PHC159_mem_26_
*1268 FE_PHC158_mem_119_
*1269 FE_PHC157_mem_25_
*1270 FE_PHC156_mem_126_
*1271 FE_PHC155_mem_112_
*1272 FE_PHC154_mem_120_
*1273 FE_PHC153_mem_21_
*1274 FE_PHC152_mem_86_
*1275 FE_PHC151_mem_73_
*1276 FE_PHC150_mem_74_
*1277 FE_PHC149_mem_106_
*1278 FE_PHC148_mem_9_
*1279 FE_PHC147_mem_2_
*1280 FE_PHC146_mem_7_
*1281 FE_PHC145_mem_104_
*1282 FE_PHC144_mem_66_
*1283 FE_PHC143_mem_59_
*1284 FE_PHC142_mem_118_
*1285 FE_PHC141_mem_48_
*1286 FE_PHC140_mem_89_
*1287 FE_PHC139_mem_103_
*1288 FE_PHC138_mem_97_
*1289 FE_PHC137_mem_45_
*1290 FE_PHC136_mem_22_
*1291 FE_PHC135_mem_81_
*1292 FE_PHC134_mem_33_
*1293 FE_PHC133_mem_13_
*1294 FE_PHC132_mem_29_
*1295 FE_PHC131_mem_127_
*1296 FE_PHC130_mem_18_
*1297 FE_PHC129_mem_43_
*1298 FE_PHC128_mem_87_
*1299 FE_PHC127_mem_63_
*1300 FE_PHC126_mem_88_
*1301 FE_PHC125_mem_57_
*1302 FE_PHC124_mem_96_
*1303 FE_PHC123_mem_56_
*1304 FE_PHC122_mem_46_
*1305 FE_PHC121_mem_15_
*1306 FE_PHC120_mem_90_
*1307 FE_PHC119_mem_37_
*1308 FE_PHC118_mem_71_
*1309 FE_PHC117_mem_65_
*1310 FE_PHC116_mem_54_
*1311 FE_PHC115_mem_50_
*1312 FE_PHC114_mem_58_
*1313 FE_PHC113_mem_31_
*1314 FE_PHC112_mem_0_
*1315 FE_PHC111_mem_64_
*1316 FE_PHC110_mem_6_
*1317 FE_PHC109_mem_19_
*1318 FE_PHC108_mem_72_
*1319 FE_PHC107_mem_27_
*1320 FE_PHC106_mem_39_
*1321 FE_PHC105_mem_80_
*1322 FE_PHC104_mem_62_
*1323 FE_PHC103_mem_122_
*1324 FE_PHC102_mem_30_
*1325 FE_PHC101_mem_105_
*1326 FE_PHC100_mem_32_
*1327 FE_PHC99_mem_34_
*1328 FE_PHC98_mem_79_
*1329 FE_PHC97_mem_16_
*1330 FE_PHC96_mem_8_
*1331 FE_PHC95_mem_47_
*1332 FE_PHC94_mem_98_
*1333 FE_PHC93_mem_5_
*1334 FE_PHC92_mem_40_
*1335 FE_PHC91_mem_38_
*1336 FE_PHC90_mem_95_
*1337 FE_PHC89_mem_113_
*1338 FE_PHC88_mem_41_
*1339 FE_PHC87_mem_121_
*1340 FE_PHC86_mem_82_
*1341 FE_PHC85_mem_35_
*1342 FE_PHC84_mem_42_
*1343 FE_PHC83_mem_114_
*1344 FE_PHC82_mem_14_
*1345 FE_PHC81_mem_17_
*1346 FE_PHC80_mem_24_
*1347 FE_PHC79_mem_111_
*1348 FE_PHC78_mem_1_
*1349 FE_PHC77_mem_49_
*1350 FE_PHC76_n46
*1351 FE_PHC75_n46
*1352 FE_PHC74_n46
*1353 FE_PHC73_n49
*1354 FE_PHC72_n46
*1355 FE_PHC71_n49
*1356 FE_PHC70_n46
*1357 FE_PHC69_n48
*1358 FE_PHC68_n47
*1359 FE_PHC67_n49
*1360 FE_PHC66_n46
*1361 FE_PHC65_n50
*1362 FE_PHC64_n48
*1363 FE_PHC63_n47
*1364 FE_PHC62_n49
*1365 FE_PHC61_n46
*1366 FE_PHC60_n50
*1367 FE_PHC59_n48
*1368 FE_PHC58_n47
*1369 FE_PHC57_n49
*1370 FE_PHC56_n46
*1371 FE_PHC55_n50
*1372 FE_PHC54_n48
*1373 FE_PHC53_n47
*1374 FE_PHC52_n327
*1375 FE_PHC51_n47
*1376 FE_PHC50_n331
*1377 FE_PHC49_n327
*1378 FE_PHC48_n330
*1379 FE_PHC47_n50
*1380 FE_PHC46_n48
*1381 FE_PHC45_n47
*1382 FE_PHC44_n331
*1383 FE_PHC43_n327
*1384 FE_PHC42_n330
*1385 FE_PHC41_n333
*1386 FE_PHC40_n50
*1387 FE_PHC39_n48
*1388 FE_PHC38_n49
*1389 FE_PHC37_n47
*1390 FE_PHC36_n46
*1391 FE_PHC35_n331
*1392 FE_PHC34_n327
*1393 FE_PHC33_n333
*1394 FE_PHC32_n330
*1395 FE_PHC31_wr_ptr_0_
*1396 FE_PHC30_n50
*1397 FE_PHC29_n48
*1398 FE_PHC28_n46
*1399 FE_PHC27_n47
*1400 FE_PHC26_n49
*1401 FE_PHC25_n47
*1402 FE_PHC24_n50
*1403 FE_PHC23_n48
*1404 FE_PHC22_n46
*1405 FE_PHC21_n49
*1406 FE_PHC20_n330
*1407 FE_PHC19_n327
*1408 FE_PHC18_n331
*1409 FE_PHC17_n333
*1410 FE_PHC16_wr_ptr_4_
*1411 FE_PHC15_n332
*1412 FE_PHC14_n56
*1413 FE_PHC13_n48
*1414 FE_PHC12_n50
*1415 FE_PHC11_n47
*1416 FE_PHC10_n49
*1417 FE_PHC9_n46
*1418 FE_PHC8_n330
*1419 FE_PHC7_wr_ptr_4_
*1420 FE_PHC6_wr_ptr_2_
*1421 FE_PHC5_n332
*1422 FE_PHC4_n327
*1423 FE_PHC3_n333
*1424 FE_PHC2_wr_ptr_0_
*1425 FE_PHC1_n331
*1426 FE_PHC0_n56
*1427 rclk__L2_I0
*1428 rclk__L1_I0
*1429 wclk__L2_I1
*1430 wclk__L2_I0
*1431 wclk__L1_I0
*1432 rd_ptr_reg_0_
*1433 rd_ptr_s_reg_0_
*1434 rd_ptr_ss_reg_0_
*1435 FULL_reg
*1436 wr_ptr_reg_4_
*1437 mem_reg_7__7_
*1438 mem_reg_7__6_
*1439 mem_reg_7__5_
*1440 mem_reg_7__4_
*1441 mem_reg_7__3_
*1442 mem_reg_7__2_
*1443 mem_reg_7__1_
*1444 mem_reg_7__0_
*1445 mem_reg_5__7_
*1446 mem_reg_5__6_
*1447 mem_reg_5__5_
*1448 mem_reg_5__4_
*1449 mem_reg_5__3_
*1450 mem_reg_5__2_
*1451 mem_reg_5__1_
*1452 mem_reg_5__0_
*1453 mem_reg_3__7_
*1454 mem_reg_3__6_
*1455 mem_reg_3__5_
*1456 mem_reg_3__4_
*1457 mem_reg_3__3_
*1458 mem_reg_3__2_
*1459 mem_reg_3__1_
*1460 mem_reg_3__0_
*1461 mem_reg_1__7_
*1462 mem_reg_1__6_
*1463 mem_reg_1__5_
*1464 mem_reg_1__4_
*1465 mem_reg_1__3_
*1466 mem_reg_1__2_
*1467 mem_reg_1__1_
*1468 mem_reg_1__0_
*1469 mem_reg_6__7_
*1470 mem_reg_6__6_
*1471 mem_reg_6__5_
*1472 mem_reg_6__4_
*1473 mem_reg_6__3_
*1474 mem_reg_6__2_
*1475 mem_reg_6__1_
*1476 mem_reg_6__0_
*1477 mem_reg_4__7_
*1478 mem_reg_4__6_
*1479 mem_reg_4__5_
*1480 mem_reg_4__4_
*1481 mem_reg_4__3_
*1482 mem_reg_4__2_
*1483 mem_reg_4__1_
*1484 mem_reg_4__0_
*1485 mem_reg_2__7_
*1486 mem_reg_2__6_
*1487 mem_reg_2__5_
*1488 mem_reg_2__4_
*1489 mem_reg_2__3_
*1490 mem_reg_2__2_
*1491 mem_reg_2__1_
*1492 mem_reg_2__0_
*1493 mem_reg_0__7_
*1494 mem_reg_0__6_
*1495 mem_reg_0__5_
*1496 mem_reg_0__4_
*1497 mem_reg_0__3_
*1498 mem_reg_0__2_
*1499 mem_reg_0__1_
*1500 mem_reg_0__0_
*1501 mem_reg_15__7_
*1502 mem_reg_15__6_
*1503 mem_reg_15__5_
*1504 mem_reg_15__4_
*1505 mem_reg_15__3_
*1506 mem_reg_15__2_
*1507 mem_reg_15__1_
*1508 mem_reg_15__0_
*1509 mem_reg_13__7_
*1510 mem_reg_13__6_
*1511 mem_reg_13__5_
*1512 mem_reg_13__4_
*1513 mem_reg_13__3_
*1514 mem_reg_13__2_
*1515 mem_reg_13__1_
*1516 mem_reg_13__0_
*1517 mem_reg_11__7_
*1518 mem_reg_11__6_
*1519 mem_reg_11__5_
*1520 mem_reg_11__4_
*1521 mem_reg_11__3_
*1522 mem_reg_11__2_
*1523 mem_reg_11__1_
*1524 mem_reg_11__0_
*1525 mem_reg_9__7_
*1526 mem_reg_9__6_
*1527 mem_reg_9__5_
*1528 mem_reg_9__4_
*1529 mem_reg_9__3_
*1530 mem_reg_9__2_
*1531 mem_reg_9__1_
*1532 mem_reg_9__0_
*1533 mem_reg_14__7_
*1534 mem_reg_14__6_
*1535 mem_reg_14__5_
*1536 mem_reg_14__4_
*1537 mem_reg_14__3_
*1538 mem_reg_14__2_
*1539 mem_reg_14__1_
*1540 mem_reg_14__0_
*1541 mem_reg_12__7_
*1542 mem_reg_12__6_
*1543 mem_reg_12__5_
*1544 mem_reg_12__4_
*1545 mem_reg_12__3_
*1546 mem_reg_12__2_
*1547 mem_reg_12__1_
*1548 mem_reg_12__0_
*1549 mem_reg_10__7_
*1550 mem_reg_10__6_
*1551 mem_reg_10__5_
*1552 mem_reg_10__4_
*1553 mem_reg_10__3_
*1554 mem_reg_10__2_
*1555 mem_reg_10__1_
*1556 mem_reg_10__0_
*1557 mem_reg_8__7_
*1558 mem_reg_8__6_
*1559 mem_reg_8__5_
*1560 mem_reg_8__4_
*1561 mem_reg_8__3_
*1562 mem_reg_8__2_
*1563 mem_reg_8__1_
*1564 mem_reg_8__0_
*1565 wr_ptr_reg_0_
*1566 wr_ptr_s_reg_0_
*1567 wr_ptr_ss_reg_0_
*1568 wr_ptr_reg_1_
*1569 wr_ptr_s_reg_1_
*1570 wr_ptr_ss_reg_1_
*1571 wr_ptr_reg_2_
*1572 wr_ptr_s_reg_2_
*1573 wr_ptr_ss_reg_2_
*1574 wr_ptr_reg_3_
*1575 wr_ptr_s_reg_3_
*1576 wr_ptr_ss_reg_3_
*1577 wr_ptr_s_reg_4_
*1578 wr_ptr_ss_reg_4_
*1579 EMPTY_reg
*1580 rd_ptr_reg_4_
*1581 rd_ptr_reg_1_
*1582 rd_ptr_s_reg_1_
*1583 rd_ptr_ss_reg_1_
*1584 rd_ptr_reg_2_
*1585 rd_ptr_s_reg_2_
*1586 rd_ptr_ss_reg_2_
*1587 rd_ptr_reg_3_
*1588 rd_ptr_s_reg_3_
*1589 rd_ptr_ss_reg_3_
*1590 rd_ptr_s_reg_4_
*1591 rd_ptr_ss_reg_4_
*1592 U64
*1593 U66
*1594 U68
*1595 U70
*1596 U72
*1597 U74
*1598 U76
*1599 U78
*1600 U81
*1601 U83
*1602 U85
*1603 U87
*1604 U89
*1605 U91
*1606 U93
*1607 U95
*1608 U98
*1609 U100
*1610 U102
*1611 U104
*1612 U106
*1613 U108
*1614 U110
*1615 U112
*1616 U115
*1617 U117
*1618 U119
*1619 U121
*1620 U123
*1621 U125
*1622 U127
*1623 U129
*1624 U132
*1625 U134
*1626 U136
*1627 U138
*1628 U140
*1629 U142
*1630 U144
*1631 U146
*1632 U149
*1633 U151
*1634 U153
*1635 U155
*1636 U157
*1637 U159
*1638 U161
*1639 U163
*1640 U166
*1641 U168
*1642 U170
*1643 U172
*1644 U174
*1645 U176
*1646 U178
*1647 U180
*1648 U183
*1649 U185
*1650 U187
*1651 U189
*1652 U191
*1653 U193
*1654 U195
*1655 U197
*1656 U200
*1657 U202
*1658 U204
*1659 U206
*1660 U208
*1661 U210
*1662 U212
*1663 U214
*1664 U217
*1665 U219
*1666 U221
*1667 U223
*1668 U225
*1669 U227
*1670 U229
*1671 U231
*1672 U234
*1673 U236
*1674 U238
*1675 U240
*1676 U242
*1677 U244
*1678 U246
*1679 U248
*1680 U251
*1681 U253
*1682 U255
*1683 U257
*1684 U259
*1685 U261
*1686 U263
*1687 U265
*1688 U268
*1689 U270
*1690 U272
*1691 U274
*1692 U276
*1693 U278
*1694 U280
*1695 U282
*1696 U285
*1697 U287
*1698 U289
*1699 U291
*1700 U293
*1701 U295
*1702 U297
*1703 U299
*1704 U303
*1705 U305
*1706 U307
*1707 U309
*1708 U311
*1709 U313
*1710 U315
*1711 U317
*1712 U320
*1713 U322
*1714 U324
*1715 U326
*1716 U328
*1717 U330
*1718 U332
*1719 U334
*1720 U338
*1721 U339
*1722 U340
*1723 U341
*1724 U342
*1725 U344
*1726 U346
*1727 U348
*1728 U350
*1729 U352
*1730 U355
*1731 U356
*1732 U357
*1733 U358
*1734 U359
*1735 U360
*1736 U361
*1737 U362
*1738 U363
*1739 U364
*1740 U365
*1741 U366
*1742 U367
*1743 U368
*1744 U369
*1745 U370
*1746 U372
*1747 gb1/U1
*1748 gb1/U2
*1749 gb1/U3
*1750 gb1/U4
*1751 gb2/U1
*1752 gb2/U2
*1753 gb2/U3
*1754 gb2/U4
*1755 gb3/U1
*1756 gb3/U2
*1757 gb3/U3
*1758 gb3/U4
*1759 gb4/U1
*1760 gb4/U2
*1761 gb4/U3
*1762 gb4/U4
*1763 bg1/U1
*1764 bg1/U2
*1765 bg1/U3
*1766 bg1/U4
*1767 bg2/U1
*1768 bg2/U2
*1769 bg2/U3
*1770 bg2/U4
*1771 add_55_U1_1_4
*1772 sub_38_U2_1
*1773 sub_38_U2_2
*1774 sub_38_U2_3
*1775 sub_38_U2_4
*1776 add_35_U1_1_1
*1777 add_35_U1_1_2
*1778 add_35_U1_1_3
*1779 add_34_U1_1_1
*1780 add_34_U1_1_2
*1781 add_34_U1_1_3
*1782 add_34_U1_1_4
*1783 U382
*1784 U383
*1785 U384
*1786 U385
*1787 U386
*1788 U387
*1789 U388
*1790 U389
*1791 U390
*1792 U391
*1793 U392
*1794 U393
*1795 U394
*1796 U400
*1797 U401
*1798 U402
*1799 U403
*1800 U404
*1801 U405
*1802 U406
*1803 U407
*1804 U408
*1805 U409
*1806 U410
*1807 U411
*1808 U412
*1809 U413
*1810 U414
*1811 U415
*1812 U416
*1813 U417
*1814 U418
*1815 U419
*1816 U420
*1817 U421
*1818 U422
*1819 U423
*1820 U424
*1821 U425
*1822 U426
*1823 U427
*1824 U428
*1825 U429
*1826 U430
*1827 U431
*1828 U432
*1829 U433
*1830 U434
*1831 U435
*1832 U436
*1833 U437
*1834 U438
*1835 U439
*1836 U440
*1837 U441
*1838 U442
*1839 U443
*1840 U444
*1841 U445
*1842 U446
*1843 U447
*1844 U448
*1845 U449
*1846 U450
*1847 U451
*1848 U452
*1849 U453
*1850 U454
*1851 U455
*1852 U456
*1853 U457
*1854 U458
*1855 U459
*1856 U460
*1857 U461
*1858 U462
*1859 U463
*1860 U464
*1861 U465
*1862 U466
*1863 U467
*1864 U468
*1865 U469
*1866 U470
*1867 U471
*1868 U472
*1869 U473
*1870 U474
*1871 U475
*1872 U476
*1873 U477
*1874 U478
*1875 U479
*1876 U480
*1877 U481
*1878 U482
*1879 U483
*1880 U484
*1881 U485
*1882 U486
*1883 U487
*1884 U488
*1885 U489
*1886 U490
*1887 U491
*1888 U492
*1889 U493
*1890 U494
*1891 U495
*1892 U496
*1893 U497
*1894 U498
*1895 U499
*1896 U500
*1897 U501
*1898 U502
*1899 U503
*1900 U504
*1901 U505
*1902 U506
*1903 U507
*1904 U508
*1905 U509
*1906 U510
*1907 U511
*1908 U512
*1909 U513
*1910 U514
*1911 U515
*1912 U516
*1913 U517
*1914 U518
*1915 U519
*1916 U520
*1917 U521
*1918 U522
*1919 U523
*1920 U524
*1921 U525
*1922 U526
*1923 U527
*1924 U528
*1925 U529
*1926 U530
*1927 U531
*1928 U532
*1929 U533
*1930 U534
*1931 U535
*1932 U536
*1933 U537
*1934 U538
*1935 U539
*1936 U540
*1937 U541
*1938 U542
*1939 U543
*1940 U544
*1941 U545
*1942 U546
*1943 U547
*1944 U548
*1945 U549
*1946 U550
*1947 U551
*1948 U552
*1949 U553
*1950 U554
*1951 U555
*1952 U556
*1953 U557
*1954 U558
*1955 U559
*1956 U560
*1957 U561
*1958 U562
*1959 U563
*1960 U564
*1961 U565
*1962 U566
*1963 U567
*1964 U568
*1965 U569
*1966 U570
*1967 U571
*1968 U572
*1969 U573
*1970 U574
*1971 U575
*1972 U576
*1973 U577
*1974 U578
*1975 U579
*1976 U580
*1977 U581
*1978 U582
*1979 U583
*1980 U584
*1981 U585