*SPEF "IEEE 1481-1998"
*DESIGN "lifo"
*DATE "Tue Oct  3 19:49:15 2017"
*VENDOR "Silicon Perspective, A Cadence Company"
*PROGRAM "First Encounter"
*VERSION "08.10-s372_1"
*DESIGN_FLOW "COUPLING C" "PIN_CAP NONE" "NAME_SCOPE LOCAL"
*DIVIDER /
*DELIMITER :
*BUS_DELIMITER []
*T_UNIT 1 NS
*C_UNIT 1 PF
*R_UNIT 1 OHM
*L_UNIT 1 HENRY

*NAME_MAP

*1 FE_OFCN10_n226
*2 FE_OFCN11_n225
*3 FE_OFCN12_n224
*4 FE_OFCN13_n223
*5 FE_OFCN14_n222
*6 FE_OFCN15_n221
*7 FE_OFCN16_n219
*8 FE_OFCN17_n241
*9 FE_OFCN18_n245
*10 FE_OFCN19_n239
*11 FE_OFCN1_n235
*12 FE_OFCN20_n199
*13 FE_OFCN26_n105
*14 FE_OFCN28_n123
*15 FE_OFCN29_n55
*16 FE_OFCN2_n234
*17 FE_OFCN3_n233
*18 FE_OFCN4_n232
*19 FE_OFCN5_n231
*20 FE_OFCN6_n230
*21 FE_OFCN7_n229
*22 FE_OFCN8_n228
*23 FE_OFCN9_n227
*24 FE_PHN48_FE_OFCN9_n227
*25 FE_PHN49_FE_OFCN1_n235
*26 FE_PHN50_FE_OFCN3_n233
*27 FE_PHN51_FE_OFCN4_n232
*28 FE_PHN52_FE_OFCN2_n234
*29 FE_PHN53_FE_OFCN6_n230
*30 FE_PHN54_FE_OFCN14_n222
*31 FE_PHN55_FE_OFCN16_n219
*32 FE_PHN56_FE_OFCN5_n231
*33 FE_PHN57_FE_OFCN8_n228
*34 FE_PHN58_FE_OFCN13_n223
*35 FE_PHN59_FE_OFCN11_n225
*36 FE_PHN60_FE_OFCN7_n229
*37 FE_PHN61_FE_OFCN10_n226
*38 FE_PHN62_FE_OFCN15_n221
*39 FE_PHN63_FE_OFCN12_n224
*40 FE_PHN64_FE_OFCN14_n222
*41 FE_PHN65_FE_OFCN5_n231
*42 FE_PHN66_n686
*43 FE_PHN67_n726
*44 FE_PHN68_mem_26_
*45 FE_PHN69_mem_16_
*46 FE_PHN70_mem_29_
*47 FE_PHN71_mem_30_
*48 FE_PHN72_mem_23_
*49 FE_PHN73_mem_28_
*50 FE_PHN74_n247
*51 FE_PHN75_mem_20_
*52 FE_PHN76_mem_19_
*53 FE_PHN77_mem_31_
*54 FE_PHN78_mem_27_
*55 FE_PHN79_mem_119_
*56 FE_PHN80_mem_71_
*57 FE_PHN81_mem_47_
*58 FE_PHN82_mem_16_
*59 FE_PSN36_FE_OFCN28_n123
*60 FE_PSN37_n55
*61 FE_PSN38_FE_OFCN29_n55
*62 FE_PSN39_FE_OFCN28_n123
*63 FE_PSN40_n708
*64 FE_PSN41_FE_OFCN28_n123
*65 FE_PSN42_FE_OFCN26_n105
*66 FE_PSN43_n36
*67 FE_PSN44_n36
*68 FE_PSN45_full
*69 FE_PSN46_n34
*70 FE_PSN47_n686
*71 clk
*72 clk__L1_N0
*73 clk__L2_N0
*74 clk__L2_N1
*75 clk__L2_N2
*76 clk__L2_N3
*77 din[0]
*78 din[10]
*79 din[11]
*80 din[12]
*81 din[13]
*82 din[14]
*83 din[15]
*84 din[1]
*85 din[2]
*86 din[3]
*87 din[4]
*88 din[5]
*89 din[6]
*90 din[7]
*91 din[8]
*92 din[9]
*93 dout[0]
*94 dout[10]
*95 dout[11]
*96 dout[12]
*97 dout[13]
*98 dout[14]
*99 dout[15]
*100 dout[1]
*101 dout[2]
*102 dout[3]
*103 dout[4]
*104 dout[5]
*105 dout[6]
*106 dout[7]
*107 dout[8]
*108 dout[9]
*109 empty
*110 full
*111 mem[0]
*112 mem[100]
*113 mem[101]
*114 mem[102]
*115 mem[103]
*116 mem[104]
*117 mem[105]
*118 mem[106]
*119 mem[107]
*120 mem[108]
*121 mem[109]
*122 mem[10]
*123 mem[110]
*124 mem[111]
*125 mem[112]
*126 mem[113]
*127 mem[114]
*128 mem[115]
*129 mem[116]
*130 mem[117]
*131 mem[118]
*132 mem[119]
*133 mem[11]
*134 mem[120]
*135 mem[121]
*136 mem[122]
*137 mem[123]
*138 mem[124]
*139 mem[125]
*140 mem[126]
*141 mem[127]
*142 mem[12]
*143 mem[13]
*144 mem[14]
*145 mem[15]
*146 mem[16]
*147 mem[17]
*148 mem[18]
*149 mem[19]
*150 mem[1]
*151 mem[20]
*152 mem[21]
*153 mem[22]
*154 mem[23]
*155 mem[24]
*156 mem[25]
*157 mem[26]
*158 mem[27]
*159 mem[28]
*160 mem[29]
*161 mem[2]
*162 mem[30]
*163 mem[31]
*164 mem[32]
*165 mem[33]
*166 mem[34]
*167 mem[35]
*168 mem[36]
*169 mem[37]
*170 mem[38]
*171 mem[39]
*172 mem[3]
*173 mem[40]
*174 mem[41]
*175 mem[42]
*176 mem[43]
*177 mem[44]
*178 mem[45]
*179 mem[46]
*180 mem[47]
*181 mem[48]
*182 mem[49]
*183 mem[4]
*184 mem[50]
*185 mem[51]
*186 mem[52]
*187 mem[53]
*188 mem[54]
*189 mem[55]
*190 mem[56]
*191 mem[57]
*192 mem[58]
*193 mem[59]
*194 mem[5]
*195 mem[60]
*196 mem[61]
*197 mem[62]
*198 mem[63]
*199 mem[64]
*200 mem[65]
*201 mem[66]
*202 mem[67]
*203 mem[68]
*204 mem[69]
*205 mem[6]
*206 mem[70]
*207 mem[71]
*208 mem[72]
*209 mem[73]
*210 mem[74]
*211 mem[75]
*212 mem[76]
*213 mem[77]
*214 mem[78]
*215 mem[79]
*216 mem[7]
*217 mem[80]
*218 mem[81]
*219 mem[82]
*220 mem[83]
*221 mem[84]
*222 mem[85]
*223 mem[86]
*224 mem[87]
*225 mem[88]
*226 mem[89]
*227 mem[8]
*228 mem[90]
*229 mem[91]
*230 mem[92]
*231 mem[93]
*232 mem[94]
*233 mem[95]
*234 mem[96]
*235 mem[97]
*236 mem[98]
*237 mem[99]
*238 mem[9]
*239 n100
*240 n101
*241 n102
*242 n103
*243 n104
*244 n105
*245 n106
*246 n107
*247 n108
*248 n109
*249 n110
*250 n111
*251 n112
*252 n114
*253 n115
*254 n116
*255 n117
*256 n118
*257 n119
*258 n120
*259 n121
*260 n122
*261 n123
*262 n124
*263 n125
*264 n126
*265 n127
*266 n128
*267 n129
*268 n130
*269 n131
*270 n132
*271 n133
*272 n134
*273 n135
*274 n136
*275 n137
*276 n138
*277 n139
*278 n140
*279 n141
*280 n143
*281 n144
*282 n145
*283 n146
*284 n147
*285 n148
*286 n149
*287 n150
*288 n151
*289 n152
*290 n153
*291 n154
*292 n155
*293 n156
*294 n157
*295 n158
*296 n159
*297 n160
*298 n162
*299 n163
*300 n164
*301 n165
*302 n166
*303 n167
*304 n168
*305 n169
*306 n170
*307 n171
*308 n172
*309 n173
*310 n174
*311 n175
*312 n176
*313 n177
*314 n178
*315 n179
*316 n180
*317 n181
*318 n182
*319 n183
*320 n184
*321 n185
*322 n186
*323 n187
*324 n188
*325 n189
*326 n190
*327 n191
*328 n192
*329 n193
*330 n194
*331 n195
*332 n196
*333 n197
*334 n198
*335 n199
*336 n200
*337 n201
*338 n203
*339 n204
*340 n205
*341 n206
*342 n207
*343 n208
*344 n209
*345 n210
*346 n211
*347 n212
*348 n213
*349 n214
*350 n215
*351 n216
*352 n217
*353 n218
*354 n219
*355 n220
*356 n221
*357 n222
*358 n223
*359 n224
*360 n225
*361 n226
*362 n227
*363 n228
*364 n229
*365 n230
*366 n231
*367 n232
*368 n233
*369 n234
*370 n235
*371 n236
*372 n237
*373 n238
*374 n239
*375 n240
*376 n241
*377 n242
*378 n243
*379 n244
*380 n245
*381 n246
*382 n247
*383 n248
*384 n249
*385 n250
*386 n251
*387 n252
*388 n253
*389 n254
*390 n255
*391 n256
*392 n257
*393 n258
*394 n259
*395 n260
*396 n261
*397 n262
*398 n263
*399 n264
*400 n265
*401 n266
*402 n267
*403 n268
*404 n269
*405 n270
*406 n271
*407 n272
*408 n273
*409 n274
*410 n275
*411 n276
*412 n277
*413 n278
*414 n279
*415 n280
*416 n281
*417 n282
*418 n283
*419 n284
*420 n285
*421 n286
*422 n287
*423 n288
*424 n289
*425 n290
*426 n291
*427 n292
*428 n293
*429 n294
*430 n295
*431 n296
*432 n297
*433 n298
*434 n299
*435 n300
*436 n301
*437 n302
*438 n303
*439 n304
*440 n305
*441 n306
*442 n307
*443 n308
*444 n309
*445 n310
*446 n311
*447 n312
*448 n313
*449 n314
*450 n315
*451 n316
*452 n317
*453 n318
*454 n319
*455 n320
*456 n321
*457 n322
*458 n323
*459 n324
*460 n325
*461 n326
*462 n327
*463 n328
*464 n329
*465 n330
*466 n331
*467 n332
*468 n333
*469 n334
*470 n335
*471 n336
*472 n337
*473 n338
*474 n339
*475 n34
*476 n340
*477 n341
*478 n342
*479 n343
*480 n344
*481 n345
*482 n346
*483 n347
*484 n348
*485 n349
*486 n35
*487 n350
*488 n351
*489 n352
*490 n353
*491 n354
*492 n355
*493 n356
*494 n357
*495 n358
*496 n359
*497 n36
*498 n360
*499 n361
*500 n362
*501 n363
*502 n364
*503 n365
*504 n366
*505 n367
*506 n368
*507 n369
*508 n370
*509 n371
*510 n372
*511 n373
*512 n374
*513 n375
*514 n376
*515 n377
*516 n378
*517 n379
*518 n380
*519 n381
*520 n382
*521 n383
*522 n412
*523 n413
*524 n414
*525 n415
*526 n416
*527 n417
*528 n418
*529 n419
*530 n420
*531 n421
*532 n422
*533 n423
*534 n424
*535 n425
*536 n426
*537 n427
*538 n428
*539 n429
*540 n430
*541 n431
*542 n432
*543 n433
*544 n434
*545 n435
*546 n436
*547 n437
*548 n438
*549 n439
*550 n440
*551 n441
*552 n442
*553 n443
*554 n444
*555 n445
*556 n446
*557 n447
*558 n448
*559 n449
*560 n450
*561 n454
*562 n455
*563 n456
*564 n457
*565 n458
*566 n459
*567 n461
*568 n462
*569 n463
*570 n464
*571 n465
*572 n466
*573 n467
*574 n468
*575 n469
*576 n470
*577 n471
*578 n472
*579 n473
*580 n474
*581 n475
*582 n476
*583 n477
*584 n478
*585 n479
*586 n480
*587 n481
*588 n482
*589 n483
*590 n484
*591 n485
*592 n486
*593 n487
*594 n488
*595 n489
*596 n490
*597 n491
*598 n492
*599 n493
*600 n494
*601 n495
*602 n496
*603 n497
*604 n498
*605 n499
*606 n500
*607 n501
*608 n502
*609 n503
*610 n504
*611 n505
*612 n506
*613 n507
*614 n508
*615 n509
*616 n510
*617 n511
*618 n512
*619 n513
*620 n514
*621 n515
*622 n516
*623 n517
*624 n518
*625 n519
*626 n520
*627 n521
*628 n522
*629 n523
*630 n524
*631 n525
*632 n526
*633 n527
*634 n528
*635 n529
*636 n530
*637 n531
*638 n532
*639 n533
*640 n534
*641 n535
*642 n536
*643 n537
*644 n538
*645 n539
*646 n540
*647 n541
*648 n542
*649 n544
*650 n545
*651 n546
*652 n547
*653 n548
*654 n549
*655 n55
*656 n550
*657 n551
*658 n552
*659 n553
*660 n554
*661 n555
*662 n556
*663 n557
*664 n558
*665 n559
*666 n56
*667 n560
*668 n561
*669 n562
*670 n563
*671 n564
*672 n565
*673 n566
*674 n567
*675 n568
*676 n569
*677 n57
*678 n570
*679 n571
*680 n572
*681 n573
*682 n574
*683 n575
*684 n576
*685 n577
*686 n578
*687 n579
*688 n58
*689 n580
*690 n581
*691 n582
*692 n583
*693 n584
*694 n585
*695 n586
*696 n587
*697 n588
*698 n589
*699 n59
*700 n590
*701 n591
*702 n592
*703 n593
*704 n594
*705 n595
*706 n596
*707 n597
*708 n598
*709 n599
*710 n60
*711 n600
*712 n601
*713 n602
*714 n603
*715 n604
*716 n605
*717 n606
*718 n607
*719 n608
*720 n609
*721 n61
*722 n610
*723 n611
*724 n612
*725 n613
*726 n614
*727 n615
*728 n616
*729 n617
*730 n618
*731 n619
*732 n62
*733 n620
*734 n621
*735 n622
*736 n623
*737 n624
*738 n625
*739 n626
*740 n627
*741 n628
*742 n629
*743 n63
*744 n630
*745 n631
*746 n632
*747 n633
*748 n634
*749 n635
*750 n636
*751 n637
*752 n638
*753 n639
*754 n64
*755 n640
*756 n641
*757 n642
*758 n643
*759 n644
*760 n645
*761 n646
*762 n647
*763 n648
*764 n649
*765 n65
*766 n650
*767 n651
*768 n652
*769 n653
*770 n654
*771 n655
*772 n656
*773 n657
*774 n658
*775 n659
*776 n66
*777 n660
*778 n661
*779 n662
*780 n663
*781 n664
*782 n665
*783 n666
*784 n667
*785 n668
*786 n669
*787 n67
*788 n670
*789 n671
*790 n672
*791 n673
*792 n674
*793 n675
*794 n676
*795 n677
*796 n678
*797 n68
*798 n681
*799 n682
*800 n683
*801 n684
*802 n685
*803 n686
*804 n687
*805 n688
*806 n689
*807 n69
*808 n690
*809 n691
*810 n692
*811 n693
*812 n694
*813 n695
*814 n696
*815 n697
*816 n698
*817 n699
*818 n70
*819 n700
*820 n701
*821 n702
*822 n703
*823 n704
*824 n705
*825 n706
*826 n707
*827 n708
*828 n709
*829 n71
*830 n710
*831 n711
*832 n712
*833 n713
*834 n714
*835 n715
*836 n716
*837 n717
*838 n718
*839 n719
*840 n72
*841 n720
*842 n721
*843 n722
*844 n723
*845 n724
*846 n725
*847 n726
*848 n727
*849 n73
*850 n74
*851 n75
*852 n76
*853 n77
*854 n78
*855 n79
*856 n80
*857 n81
*858 n82
*859 n83
*860 n84
*861 n85
*862 n86
*863 n87
*864 n89
*865 n90
*866 n91
*867 n92
*868 n93
*869 n94
*870 n95
*871 n96
*872 n97
*873 n98
*874 n99
*875 pop
*876 push
*877 reset
*878 FE_PHC82_mem_16_
*879 FE_PHC81_mem_47_
*880 FE_PHC80_mem_71_
*881 FE_PHC79_mem_119_
*882 FE_PHC78_mem_27_
*883 FE_PHC77_mem_31_
*884 FE_PHC76_mem_19_
*885 FE_PHC75_mem_20_
*886 FE_PHC74_n247
*887 FE_PHC73_mem_28_
*888 FE_PHC72_mem_23_
*889 FE_PHC71_mem_30_
*890 FE_PHC70_mem_29_
*891 FE_PHC69_mem_16_
*892 FE_PHC68_mem_26_
*893 FE_PHC67_n726
*894 FE_PHC66_n686
*895 FE_PHC65_FE_OFCN5_n231
*896 FE_PHC64_FE_OFCN14_n222
*897 FE_PHC63_FE_OFCN12_n224
*898 FE_PHC62_FE_OFCN15_n221
*899 FE_PHC61_FE_OFCN10_n226
*900 FE_PHC60_FE_OFCN7_n229
*901 FE_PHC59_FE_OFCN11_n225
*902 FE_PHC58_FE_OFCN13_n223
*903 FE_PHC57_FE_OFCN8_n228
*904 FE_PHC56_FE_OFCN5_n231
*905 FE_PHC55_FE_OFCN16_n219
*906 FE_PHC54_FE_OFCN14_n222
*907 FE_PHC53_FE_OFCN6_n230
*908 FE_PHC52_FE_OFCN2_n234
*909 FE_PHC51_FE_OFCN4_n232
*910 FE_PHC50_FE_OFCN3_n233
*911 FE_PHC49_FE_OFCN1_n235
*912 FE_PHC48_FE_OFCN9_n227
*913 FE_PSC47_n686
*914 FE_PSC46_n34
*915 FE_PSC45_full
*916 FE_PSC44_n36
*917 FE_PSC43_n36
*918 FE_PSC42_FE_OFCN26_n105
*919 FE_PSC41_FE_OFCN28_n123
*920 FE_PSC40_n708
*921 FE_PSC39_FE_OFCN28_n123
*922 FE_PSC38_FE_OFCN29_n55
*923 FE_PSC37_n55
*924 FE_PSC36_FE_OFCN28_n123
*925 FE_OFCC29_n55
*926 FE_OFCC28_n123
*927 FE_OFCC26_n105
*928 FE_OFCC20_n199
*929 FE_OFCC19_n239
*930 FE_OFCC18_n245
*931 FE_OFCC17_n241
*932 FE_OFCC16_n219
*933 FE_OFCC15_n221
*934 FE_OFCC14_n222
*935 FE_OFCC13_n223
*936 FE_OFCC12_n224
*937 FE_OFCC11_n225
*938 FE_OFCC10_n226
*939 FE_OFCC9_n227
*940 FE_OFCC8_n228
*941 FE_OFCC7_n229
*942 FE_OFCC6_n230
*943 FE_OFCC5_n231
*944 FE_OFCC4_n232
*945 FE_OFCC3_n233
*946 FE_OFCC2_n234
*947 FE_OFCC1_n235
*948 clk__L2_I3
*949 clk__L2_I2
*950 clk__L2_I1
*951 clk__L2_I0
*952 clk__L1_I0
*953 ptr_reg_0_
*954 ptr_reg_1_
*955 empty_reg
*956 dout_reg_0_
*957 dout_reg_1_
*958 dout_reg_2_
*959 dout_reg_3_
*960 dout_reg_4_
*961 dout_reg_5_
*962 dout_reg_6_
*963 dout_reg_7_
*964 dout_reg_8_
*965 dout_reg_9_
*966 dout_reg_10_
*967 dout_reg_11_
*968 dout_reg_12_
*969 dout_reg_13_
*970 dout_reg_14_
*971 dout_reg_15_
*972 ptr_reg_2_
*973 mem_reg_0__15_
*974 mem_reg_0__14_
*975 mem_reg_0__13_
*976 mem_reg_0__12_
*977 mem_reg_0__11_
*978 mem_reg_0__10_
*979 mem_reg_0__9_
*980 mem_reg_0__8_
*981 mem_reg_0__7_
*982 mem_reg_0__6_
*983 mem_reg_0__5_
*984 mem_reg_0__4_
*985 mem_reg_0__3_
*986 mem_reg_0__2_
*987 mem_reg_0__1_
*988 mem_reg_0__0_
*989 mem_reg_4__15_
*990 mem_reg_4__14_
*991 mem_reg_4__13_
*992 mem_reg_4__12_
*993 mem_reg_4__11_
*994 mem_reg_4__10_
*995 mem_reg_4__9_
*996 mem_reg_4__8_
*997 mem_reg_4__7_
*998 mem_reg_4__6_
*999 mem_reg_4__5_
*1000 mem_reg_4__4_
*1001 mem_reg_4__3_
*1002 mem_reg_4__2_
*1003 mem_reg_4__1_
*1004 mem_reg_4__0_
*1005 mem_reg_1__15_
*1006 mem_reg_1__14_
*1007 mem_reg_1__13_
*1008 mem_reg_1__12_
*1009 mem_reg_1__11_
*1010 mem_reg_1__10_
*1011 mem_reg_1__9_
*1012 mem_reg_1__8_
*1013 mem_reg_1__7_
*1014 mem_reg_1__6_
*1015 mem_reg_1__5_
*1016 mem_reg_1__4_
*1017 mem_reg_1__3_
*1018 mem_reg_1__2_
*1019 mem_reg_1__1_
*1020 mem_reg_1__0_
*1021 mem_reg_2__15_
*1022 mem_reg_2__14_
*1023 mem_reg_2__13_
*1024 mem_reg_2__12_
*1025 mem_reg_2__11_
*1026 mem_reg_2__10_
*1027 mem_reg_2__9_
*1028 mem_reg_2__8_
*1029 mem_reg_2__7_
*1030 mem_reg_2__6_
*1031 mem_reg_2__5_
*1032 mem_reg_2__4_
*1033 mem_reg_2__3_
*1034 mem_reg_2__2_
*1035 mem_reg_2__1_
*1036 mem_reg_2__0_
*1037 mem_reg_6__15_
*1038 mem_reg_6__14_
*1039 mem_reg_6__13_
*1040 mem_reg_6__12_
*1041 mem_reg_6__11_
*1042 mem_reg_6__10_
*1043 mem_reg_6__9_
*1044 mem_reg_6__8_
*1045 mem_reg_6__7_
*1046 mem_reg_6__6_
*1047 mem_reg_6__5_
*1048 mem_reg_6__4_
*1049 mem_reg_6__3_
*1050 mem_reg_6__2_
*1051 mem_reg_6__1_
*1052 mem_reg_6__0_
*1053 mem_reg_7__15_
*1054 mem_reg_7__14_
*1055 mem_reg_7__13_
*1056 mem_reg_7__12_
*1057 mem_reg_7__11_
*1058 mem_reg_7__10_
*1059 mem_reg_7__9_
*1060 mem_reg_7__8_
*1061 mem_reg_7__7_
*1062 mem_reg_7__6_
*1063 mem_reg_7__5_
*1064 mem_reg_7__4_
*1065 mem_reg_7__3_
*1066 mem_reg_7__2_
*1067 mem_reg_7__1_
*1068 mem_reg_7__0_
*1069 mem_reg_3__15_
*1070 mem_reg_3__14_
*1071 mem_reg_3__13_
*1072 mem_reg_3__12_
*1073 mem_reg_3__11_
*1074 mem_reg_3__10_
*1075 mem_reg_3__9_
*1076 mem_reg_3__8_
*1077 mem_reg_3__7_
*1078 mem_reg_3__6_
*1079 mem_reg_3__5_
*1080 mem_reg_3__4_
*1081 mem_reg_3__3_
*1082 mem_reg_3__2_
*1083 mem_reg_3__1_
*1084 mem_reg_3__0_
*1085 mem_reg_5__15_
*1086 mem_reg_5__14_
*1087 mem_reg_5__13_
*1088 mem_reg_5__12_
*1089 mem_reg_5__11_
*1090 mem_reg_5__10_
*1091 mem_reg_5__9_
*1092 mem_reg_5__8_
*1093 mem_reg_5__7_
*1094 mem_reg_5__6_
*1095 mem_reg_5__5_
*1096 mem_reg_5__4_
*1097 mem_reg_5__3_
*1098 mem_reg_5__2_
*1099 mem_reg_5__1_
*1100 mem_reg_5__0_
*1101 U55
*1102 U57
*1103 U59
*1104 U61
*1105 U63
*1106 U65
*1107 U67
*1108 U69
*1109 U71
*1110 U73
*1111 U75
*1112 U77
*1113 U79
*1114 U81
*1115 U83
*1116 U85
*1117 U87
*1118 U88
*1119 U90
*1120 U92
*1121 U94
*1122 U96
*1123 U98
*1124 U100
*1125 U102
*1126 U104
*1127 U106
*1128 U108
*1129 U110
*1130 U112
*1131 U114
*1132 U116
*1133 U118
*1134 U121
*1135 U123
*1136 U125
*1137 U127
*1138 U129
*1139 U131
*1140 U133
*1141 U135
*1142 U137
*1143 U139
*1144 U141
*1145 U143
*1146 U145
*1147 U147
*1148 U149
*1149 U151
*1150 U153
*1151 U154
*1152 U156
*1153 U158
*1154 U160
*1155 U162
*1156 U164
*1157 U166
*1158 U168
*1159 U170
*1160 U172
*1161 U174
*1162 U176
*1163 U178
*1164 U180
*1165 U182
*1166 U184
*1167 U186
*1168 U187
*1169 U188
*1170 U190
*1171 U192
*1172 U194
*1173 U196
*1174 U198
*1175 U200
*1176 U202
*1177 U204
*1178 U206
*1179 U208
*1180 U210
*1181 U212
*1182 U214
*1183 U216
*1184 U218
*1185 U221
*1186 U222
*1187 U224
*1188 U226
*1189 U228
*1190 U230
*1191 U232
*1192 U234
*1193 U236
*1194 U238
*1195 U240
*1196 U242
*1197 U244
*1198 U246
*1199 U248
*1200 U250
*1201 U252
*1202 U255
*1203 U256
*1204 U258
*1205 U260
*1206 U262
*1207 U264
*1208 U266
*1209 U268
*1210 U270
*1211 U272
*1212 U274
*1213 U276
*1214 U278
*1215 U280
*1216 U282
*1217 U284
*1218 U286
*1219 U288
*1220 U289
*1221 U290
*1222 U291
*1223 U293
*1224 U295
*1225 U297
*1226 U299
*1227 U301
*1228 U303
*1229 U305
*1230 U307
*1231 U309
*1232 U311
*1233 U313
*1234 U315
*1235 U317
*1236 U319
*1237 U321
*1238 U324
*1239 U325
*1240 U326
*1241 U327
*1242 U328
*1243 U329
*1244 U330
*1245 U331
*1246 U332
*1247 U333
*1248 U334
*1249 U335
*1250 U336
*1251 U337
*1252 U338
*1253 U339
*1254 U340
*1255 U341
*1256 U342
*1257 U343
*1258 U345
*1259 U346
*1260 U350
*1261 U351
*1262 U352
*1263 U354
*1264 U356
*1265 U359
*1266 U361
*1267 U365
*1268 U366
*1269 U367
*1270 U368
*1271 U369
*1272 U398
*1273 U399
*1274 U400
*1275 U401
*1276 U402
*1277 U403
*1278 U404
*1279 U405
*1280 U406
*1281 U407
*1282 U408
*1283 U409
*1284 U410
*1285 U411
*1286 U412
*1287 U413
*1288 U414
*1289 U415
*1290 U416
*1291 U417
*1292 U418
*1293 U419
*1294 U420
*1295 U421
*1296 U422
*1297 U423
*1298 U424
*1299 U425
*1300 U426
*1301 U427
*1302 U428
*1303 U429
*1304 U430
*1305 U431
*1306 U432
*1307 U433
*1308 U434
*1309 U435
*1310 U436
*1311 U437
*1312 U438
*1313 U439
*1314 U440
*1315 U441
*1316 U442
*1317 U443
*1318 U444
*1319 U445
*1320 U446
*1321 U447
*1322 U448
*1323 U449
*1324 U450
*1325 U451
*1326 U452
*1327 U453
*1328 U454
*1329 U455
*1330 U456
*1331 U457
*1332 U458
*1333 U459
*1334 U460
*1335 U461
*1336 U462
*1337 U463
*1338 U464
*1339 U465
*1340 U466
*1341 U467
*1342 U468
*1343 U469
*1344 U470
*1345 U471
*1346 U472
*1347 U473
*1348 U474
*1349 U475
*1350 U479
*1351 U480
*1352 U481
*1353 U482
*1354 U483
*1355 U484
*1356 U485
*1357 U486
*1358 U487
*1359 U488
*1360 U490
*1361 U491
*1362 U492
*1363 U493
*1364 U494
*1365 U495
*1366 U496
*1367 U497
*1368 U498
*1369 U499
*1370 U500
*1371 U501
*1372 U502
*1373 U503
*1374 U504
*1375 U505
*1376 U506
*1377 U507
*1378 U508
*1379 U509
*1380 U510
*1381 U511
*1382 U512
*1383 U513
*1384 U514
*1385 U515
*1386 U516
*1387 U517
*1388 U518
*1389 U519
*1390 U520
*1391 U521
*1392 U522
*1393 U523
*1394 U524
*1395 U525
*1396 U526
*1397 U527
*1398 U528
*1399 U529
*1400 U530
*1401 U531
*1402 U532
*1403 U533
*1404 U534
*1405 U535
*1406 U536
*1407 U537
*1408 U538
*1409 U539
*1410 U540
*1411 U541
*1412 U542
*1413 U543
*1414 U544
*1415 U545
*1416 U546
*1417 U547
*1418 U548
*1419 U549
*1420 U550
*1421 U551
*1422 U552
*1423 U553
*1424 U554
*1425 U555
*1426 U556
*1427 U557
*1428 U558
*1429 U559
*1430 U560
*1431 U561
*1432 U562
*1433 U563
*1434 U564
*1435 U565
*1436 U566
*1437 U567
*1438 U568
*1439 U569
*1440 U570
*1441 U571
*1442 U572
*1443 U573
*1444 U574
*1445 U575
*1446 U576
*1447 U577
*1448 U578
*1449 U579
*1450 U580
*1451 U581
*1452 U582
*1453 U583
*1454 U584
*1455 U585
*1456 U586
*1457 U587
*1458 U588
*1459 U589
*1460 U590
*1461 U591
*1462 U592
*1463 U593
*1464 U594
*1465 U595
*1466 U596
*1467 U597
*1468 U598
*1469 U599
*1470 U600
*1471 U601
*1472 U602
*1473 U603
*1474 U604
*1475 U605
*1476 U606
*1477 U607
*1478 U608
*1479 U609
*1480 U610
*1481 U611
*1482 U612
*1483 U613
*1484 U614
*1485 U615
*1486 U616
*1487 U617
*1488 U618
*1489 U619
*1490 U620
*1491 U621
*1492 U622
*1493 U623
*1494 U624
*1495 U625
*1496 U626
*1497 U627
*1498 U628
*1499 U629
*1500 U630
*1501 U631
*1502 U632
*1503 U633
*1504 U634
*1505 U635
*1506 U636
*1507 U637
*1508 U638
*1509 U639
*1510 U640
*1511 U641
*1512 U642
*1513 U643
*1514 U644
*1515 U645
*1516 U646
*1517 U647
*1518 U648
*1519 U649
*1520 U650
*1521 U651
*1522 U652
*1523 U654
*1524 U655
*1525 U656
*1526 U657
*1527 U658
*1528 U659
*1529 U660
*1530 U661
*1531 U662
*1532 U663
*1533 U664
*1534 U665
*1535 U666
*1536 U667
*1537 U668
*1538 U669
*1539 U670
*1540 U671
*1541 U672
*1542 U673
*1543 U674
*1544 U675
*1545 U676
*1546 U677
*1547 U678
*1548 U679
*1549 U680
*1550 U681
*1551 U682
*1552 U683
*1553 U684
*1554 U685
*1555 U686
*1556 U687
*1557 U688
*1558 U690
*1559 U691
*1560 U693
*1561 U694
*1562 U695
*1563 U696
*1564 U697
*1565 U698
*1566 U699
*1567 U700
*1568 U701
*1569 U702
*1570 U703
*1571 U704
*1572 U705
*1573 U706
*1574 U707
*1575 U708
*1576 U709
*1577 U710
*1578 U711
*1579 U712
*1580 U713
*1581 U714
*1582 U715
*1583 U716
*1584 U717
*1585 U718
*1586 U719
*1587 U720
*1588 U721
*1589 U722
*1590 U723
*1591 U724
*1592 U725
*1593 U726
*1594 U727
*1595 U728
*1596 U729
*1597 U730
*1598 U731
*1599 U732
*1600 U733
*1601 U734
*1602 U735
*1603 U736
*1604 U737
*1605 U738
*1606 U739
*1607 U740
*1608 U741
*1609 U742
*1610 U743
*1611 U744
*1612 U745
*1613 U746
*1614 U747
*1615 U748
*1616 U749
*1617 U750
*1618 U751
*1619 U752
*1620 U753
*1621 U754
*1622 U755
*1623 U756
*1624 U757
*1625 U758
*1626 U759
*1627 U760
*1628 U761
*1629 U762
*1630 U763
*1631 U764
*1632 U765
*1633 U766
*1634 U767
*1635 U768
*1636 U769
*1637 U770
*1638 U771
*1639 U772
*1640 U773
*1641 U774
*1642 U775
*1643 U776
*1644 U777
*1645 U778
*1646 U779
*1647 U780
*1648 U781
*1649 U782
*1650 U783
*1651 U784
*1652 U785
*1653 U786
*1654 U787
*1655 U788
*1656 U789
*1657 U790
*1658 U791
*1659 U792
*1660 U793
*1661 U794
*1662 U795
*1663 U796
*1664 U797
*1665 U798
*1666 U799
*1667 U800
*1668 U801
*1669 U802
*1670 U803
*1671 U804
*1672 U805
*1673 U806
*1674 U807
*1675 U808
*1676 U809
*1677 U810
*1678 U811
*1679 U812
*1680 U813
*1681 U814
*1682 U815
*1683 U816
*1684 U817
*1685 U818
*1686 U819
*1687 U820
*1688 U821
*1689 U822
*1690 U823
*1691 U824
*1692 U825
*1693 U826
*1694 U827
*1695 U828
*1696 U829
*1697 U830
*1698 U831
*1699 U832
*1700 U833
*1701 U834
*1702 U835
*1703 U836
*1704 U837
*1705 U838
*1706 U839
*1707 U840
*1708 U841
*1709 U842
*1710 U843
*1711 U844
*1712 U845
*1713 U846
*1714 U847
*1715 U848
*1716 U849
*1717 U850
*1718 U851
*1719 U852
*1720 U853
*1721 U854
*1722 U855
*1723 U856
*1724 U857
*1725 U858
*1726 U859
*1727 U860
*1728 U861
*1729 U862
*1730 U863
*1731 U864
*1732 U865
*1733 U866
*1734 U867


*PORTS

*876 I *C 78.565 0
*875 I *C 77.045 0
*877 I *C 72.675 0
*71 I *C 50.825 0
*83 I *C 61.465 94.48
*82 I *C 0 46.835
*81 I *C 0 32.965
*80 I *C 70.585 94.48
*79 I *C 0 51.775
*78 I *C 107.28 67.545
*92 I *C 55.765 94.48
*91 I *C 107.28 41.895
*90 I *C 46.645 0
*89 I *C 107.28 46.835
*88 I *C 31.065 0
*87 I *C 0 47.785
*86 I *C 58.805 0
*85 I *C 43.225 94.48
*84 I *C 0 67.545
*77 I *C 50.065 0
*109 O *C 81.035 0
*110 O *C 77.615 0
*99 O *C 60.135 0
*98 O *C 0 44.555
*97 O *C 40.185 0
*96 O *C 67.355 94.48
*95 O *C 0 51.68
*94 O *C 107.28 57.855
*108 O *C 56.905 94.48
*107 O *C 68.305 0
*106 O *C 44.935 0
*105 O *C 107.28 51.585
*104 O *C 35.815 0
*103 O *C 0 52.915
*102 O *C 58.235 0
*101 O *C 41.135 94.48
*100 O *C 0 57.475
*93 O *C 50.445 0


*D_NET *255 0.00015412

*CONN
*I *1436:A I *C 27 22 *L 0.00155 *D INVX1
*I *1435:Y O *C 27 21 *L 0 *D AND2X1

*CAP
1 *1436:A 3.858e-05
2 *255:4 4.457e-05
3 *255:3 1.388e-05
4 *255:2 3.249e-05
5 *1435:Y 2.46e-05

*RES
1 *1435:Y *255:2 2.22154
2 *255:2 *255:3 0.555385
3 *255:3 *255:4 0.540769
4 *255:4 *1436:A 1.63692
*END

*D_NET *274 0.00015626

*CONN
*I *1424:A I *C 64 23 *L 0.00155 *D INVX1
*I *1423:Y O *C 63 24 *L 0 *D AND2X2

*CAP
1 *1424:A 3.58e-05
2 *274:3 4.195e-05
3 *274:2 4.233e-05
4 *1423:Y 3.618e-05

*RES
1 *1423:Y *274:2 2.77692
2 *274:3 *274:2 0.555385
3 *274:3 *1424:A 2.74769
*END

*D_NET *384 9.644e-05

*CONN
*I *1273:A I *C 67 28 *L 0.00155 *D INVX1
*I *1272:Y O *C 66 29 *L 0 *D AND2X2

*CAP
1 *1273:A 2.037e-05
2 *384:3 2.652e-05
3 *384:2 2.785e-05
4 *1272:Y 2.17e-05

*RES
1 *1272:Y *384:2 1.66615
2 *384:3 *384:2 0.555385
3 *384:3 *1273:A 1.56385
*END

*D_NET *613 0.0001689

*CONN
*I *1452:Y O *C 32 27 *L 0 *D INVX1
*I *1179:C I *C 31 28 *L 0.00201 *D OAI21X1

*CAP
1 *1179:C 3.171e-05
2 *613:3 3.786e-05
3 *613:2 5.274e-05
4 *1452:Y 4.659e-05

*RES
1 *613:2 *1452:Y 3.88769
2 *613:2 *613:3 0.555385
3 *1179:C *613:3 2.64538
*END

*D_NET *595 0.00017168

*CONN
*I *1416:Y O *C 42 27 *L 0 *D INVX1
*I *1177:C I *C 41 28 *L 0.00201 *D OAI21X1

*CAP
1 *1177:C 1.979e-05
2 *595:3 2.594e-05
3 *595:2 6.605e-05
4 *1416:Y 5.99e-05

*RES
1 *595:2 *1416:Y 4.99846
2 *595:2 *595:3 0.555385
3 *1177:C *595:3 1.65154
*END

*D_NET *619 0.00011618

*CONN
*I *1464:Y O *C 42 32 *L 0 *D INVX1
*I *1194:C I *C 42 31 *L 0.00201 *D OAI21X1

*CAP
1 *1194:C 3.856e-05
2 *619:3 4.471e-05
3 *619:2 1.953e-05
4 *1464:Y 1.338e-05

*RES
1 *619:2 *1464:Y 1.14
2 *619:3 *619:2 0.555385
3 *1194:C *619:3 3.28846
*END

*D_NET *292 0.00012098

*CONN
*I *1494:A I *C 58 31 *L 0.00155 *D INVX1
*I *1493:Y O *C 57 31 *L 0 *D AND2X1

*CAP
1 *1494:A 2.816e-05
2 *292:4 3.415e-05
3 *292:3 1.388e-05
4 *292:2 2.634e-05
5 *1493:Y 1.845e-05

*RES
1 *1493:Y *292:2 1.66615
2 *292:2 *292:3 0.555385
3 *292:3 *292:4 0.540769
4 *292:4 *1494:A 1.66615
*END

*D_NET *660 0.00011422

*CONN
*I *1544:Y O *C 48 32 *L 0 *D INVX1
*I *1149:C I *C 47 33 *L 0.00201 *D OAI21X1

*CAP
1 *1149:C 3.31e-05
2 *660:3 3.893e-05
3 *660:2 2.401e-05
4 *1544:Y 1.818e-05

*RES
1 *660:2 *1544:Y 1.66615
2 *660:2 *660:3 0.526154
3 *1149:C *660:3 2.76231
*END

*D_NET *804 0.00014478

*CONN
*I *1617:Y O *C 53 32 *L 0 *D INVX1
*I *956:D I *C 53 33 *L 0.00182 *D DFFPOSX1

*CAP
1 *956:D 1.997e-05
2 *804:3 2.58e-05
3 *804:2 5.242e-05
4 *1617:Y 4.659e-05

*RES
1 *804:2 *1617:Y 3.88769
2 *804:2 *804:3 0.526154
3 *956:D *804:3 1.66615
*END

*D_NET *555 0.0001726

*CONN
*I *1339:Y O *C 25 37 *L 0 *D INVX1
*I *1120:C I *C 23 36 *L 0.00201 *D OAI21X1

*CAP
1 *1120:C 5.971e-05
2 *555:3 6.586e-05
3 *555:2 2.659e-05
4 *1339:Y 2.044e-05

*RES
1 *555:2 *1339:Y 1.66615
2 *555:3 *555:2 0.555385
3 *1120:C *555:3 4.86692
*END

*D_NET *340 0.00011194

*CONN
*I *1364:A I *C 35 41 *L 0.00155 *D INVX1
*I *1363:Y O *C 35 40 *L 0 *D AND2X1

*CAP
1 *1364:A 1.715e-05
2 *340:4 2.413e-05
3 *340:3 1.928e-05
4 *340:2 3.184e-05
5 *1363:Y 1.954e-05

*RES
1 *1363:Y *340:2 1.66615
2 *340:2 *340:3 1.11077
3 *340:3 *340:4 0.555385
4 *340:4 *1364:A 1.54923
*END

*D_NET *635 8.206e-05

*CONN
*I *1496:Y O *C 32 46 *L 0 *D INVX1
*I *1135:C I *C 31 46 *L 0.00201 *D OAI21X1

*CAP
1 *1135:C 4.103e-05
2 *1496:Y 4.103e-05

*RES
1 *1135:C *1496:Y 4.42846
*END

*D_NET *531 0.00010828

*CONN
*I *1291:Y O *C 50 46 *L 0 *D INVX2
*I *1207:C I *C 49 46 *L 0.00201 *D OAI21X1

*CAP
1 *1207:C 5.414e-05
2 *1291:Y 5.414e-05

*RES
1 *1207:C *1291:Y 4.41385
*END

*D_NET *630 0.00014746

*CONN
*I *1486:Y O *C 82 46 *L 0 *D INVX1
*I *1195:C I *C 80 46 *L 0.00201 *D OAI21X1

*CAP
1 *1195:C 2.025e-05
2 *630:3 2.64e-05
3 *630:2 5.348e-05
4 *1486:Y 4.733e-05

*RES
1 *630:2 *1486:Y 4.99846
2 *630:3 *630:2 0.555385
3 *1195:C *630:3 1.65154
*END

*D_NET *765 0.00013026

*CONN
*I *1590:Y O *C 41 46 *L 0 *D INVX1
*I *1240:C I *C 41 46 *L 0.00288 *D AOI22X1

*CAP
1 *1240:C 6.513e-05
2 *1590:Y 6.513e-05

*RES
1 *1590:Y *1240:C 4.99846
*END

*D_NET *545 0.00017982

*CONN
*I *1319:Y O *C 69 47 *L 0 *D INVX1
*I *1151:C I *C 67 48 *L 0.00201 *D OAI21X1

*CAP
1 *1151:C 3.013e-05
2 *545:3 3.401e-05
3 *545:2 5.978e-05
4 *1319:Y 5.59e-05

*RES
1 *545:2 *1319:Y 3.88769
2 *545:2 *545:3 0.350769
3 *1151:C *545:3 2.76231
*END

*D_NET *816 0.00014284

*CONN
*I *1595:Y O *C 41 51 *L 0 *D INVX1
*I *967:D I *C 40 51 *L 0.00182 *D DFFPOSX1

*CAP
1 *967:D 1.757e-05
2 *816:3 2.372e-05
3 *816:2 5.385e-05
4 *1595:Y 4.77e-05

*RES
1 *816:2 *1595:Y 3.88769
2 *816:3 *816:2 0.555385
3 *967:D *816:3 1.43231
*END

*D_NET *536 0.00012852

*CONN
*I *1301:Y O *C 55 51 *L 0 *D INVX1
*I *1190:C I *C 53 51 *L 0.00201 *D OAI21X1

*CAP
1 *1190:C 4.265e-05
2 *536:3 4.848e-05
3 *536:2 2.161e-05
4 *1301:Y 1.578e-05

*RES
1 *536:2 *1301:Y 1.66615
2 *536:3 *536:2 0.526154
3 *1190:C *536:3 4.98385
*END

*D_NET *811 8.83e-05

*CONN
*I *1605:Y O *C 70 51 *L 0 *D INVX1
*I *962:D I *C 69 51 *L 0.00182 *D DFFPOSX1

*CAP
1 *962:D 2.437e-05
2 *811:3 3.052e-05
3 *811:2 1.978e-05
4 *1605:Y 1.363e-05

*RES
1 *811:2 *1605:Y 1.11077
2 *811:3 *811:2 0.555385
3 *962:D *811:3 1.98769
*END

*D_NET *309 0.00013652

*CONN
*I *1532:A I *C 32 52 *L 0.00155 *D INVX1
*I *1531:Y O *C 31 53 *L 0 *D AND2X1

*CAP
1 *1532:A 3.028e-05
2 *309:4 3.643e-05
3 *309:3 1.338e-05
4 *309:2 3.183e-05
5 *1531:Y 2.46e-05

*RES
1 *309:2 *1531:Y 2.22154
2 *309:2 *309:3 0.555385
3 *309:4 *309:3 0.555385
4 *309:4 *1532:A 1.63692
*END

*D_NET *851 6.49e-05

*CONN
*I *1610:Y O *C 36 52 *L 0 *D INVX1
*I *1250:C I *C 36 53 *L 0.00288 *D AOI22X1

*CAP
1 *1250:C 3.245e-05
2 *1610:Y 3.245e-05

*RES
1 *1610:Y *1250:C 2.64538
*END

*D_NET *638 0.00016746

*CONN
*I *1502:Y O *C 55 52 *L 0 *D INVX1
*I *1155:C I *C 53 53 *L 0.00201 *D OAI21X1

*CAP
1 *1155:C 5.972e-05
2 *638:3 6.555e-05
3 *638:2 2.401e-05
4 *1502:Y 1.818e-05

*RES
1 *638:2 *1502:Y 1.66615
2 *638:2 *638:3 0.526154
3 *1155:C *638:3 4.98385
*END

*D_NET *532 0.000252

*CONN
*I *1293:Y O *C 73 52 *L 0 *D INVX2
*I *1206:C I *C 72 53 *L 0.00201 *D OAI21X1

*CAP
1 *1206:C 0.000126
2 *1293:Y 0.000126

*RES
1 *1206:C *1293:Y 6.63538
*END

*D_NET *558 0.00017188

*CONN
*I *1345:Y O *C 46 56 *L 0 *D INVX1
*I *1105:C I *C 45 56 *L 0.00201 *D OAI21X1

*CAP
1 *1105:C 3.245e-05
2 *558:3 3.828e-05
3 *558:2 5.349e-05
4 *1345:Y 4.766e-05

*RES
1 *558:2 *1345:Y 3.88769
2 *558:3 *558:2 0.526154
3 *1105:C *558:3 2.64538
*END

*D_NET *32 3.582e-05

*CONN
*I *895:A I *C 36 56 *L 0.00154 *D BUFX2
*I *904:Y O *C 36 56 *L 0 *D BUFX2

*CAP
1 *895:A 1.791e-05
2 *904:Y 1.791e-05

*RES
1 *895:A *904:Y 1.37385
*END

*D_NET *2 3.582e-05

*CONN
*I *901:A I *C 71 56 *L 0.00154 *D BUFX2
*I *937:Y O *C 71 56 *L 0 *D BUFX2

*CAP
1 *937:Y 1.791e-05
2 *901:A 1.791e-05

*RES
1 *901:A *937:Y 1.37385
*END

*D_NET *615 0.00011326

*CONN
*I *1456:Y O *C 33 57 *L 0 *D INVX1
*I *1233:C I *C 32 58 *L 0.00201 *D OAI21X1

*CAP
1 *1233:C 4.169e-05
2 *615:3 4.525e-05
3 *615:2 1.494e-05
4 *1456:Y 1.138e-05

*RES
1 *615:2 *1456:Y 0.95
2 *615:2 *615:3 0.321538
3 *1233:C *615:3 3.47846
*END

*D_NET *573 0.00011778

*CONN
*I *1372:Y O *C 46 57 *L 0 *D INVX1
*I *1122:C I *C 45 58 *L 0.00201 *D OAI21X1

*CAP
1 *1122:C 4.325e-05
2 *573:3 4.908e-05
3 *573:2 1.564e-05
4 *1372:Y 9.81e-06

*RES