*SPEF "IEEE 1481-1998"
*DESIGN "TCAM"
*DATE "Tue Oct  3 20:51:03 2017"
*VENDOR "Silicon Perspective, A Cadence Company"
*PROGRAM "First Encounter"
*VERSION "08.10-s372_1"
*DESIGN_FLOW "COUPLING C" "PIN_CAP NONE" "NAME_SCOPE LOCAL"
*DIVIDER /
*DELIMITER :
*BUS_DELIMITER []
*T_UNIT 1 NS
*C_UNIT 1 PF
*R_UNIT 1 OHM
*L_UNIT 1 HENRY

*NAME_MAP

*1 DIN[0]
*2 DIN[10]
*3 DIN[11]
*4 DIN[12]
*5 DIN[13]
*6 DIN[14]
*7 DIN[15]
*8 DIN[1]
*9 DIN[2]
*10 DIN[3]
*11 DIN[4]
*12 DIN[5]
*13 DIN[6]
*14 DIN[7]
*15 DIN[8]
*16 DIN[9]
*17 EN
*18 FE_OFCN0_rank_0_
*19 FE_OFCN100_mem_98_
*20 FE_OFCN101_mem_97_
*21 FE_OFCN102_mem_96_
*22 FE_OFCN103_m
*23 FE_OFCN104_n2999
*24 FE_OFCN105_matchN_17_
*25 FE_OFCN106_matchN_16_
*26 FE_OFCN107_matchN_15_
*27 FE_OFCN108_mem_95_
*28 FE_OFCN109_mem_94_
*29 FE_OFCN110_mem_93_
*30 FE_OFCN111_mem_92_
*31 FE_OFCN112_mem_91_
*32 FE_OFCN113_mem_90_
*33 FE_OFCN114_mem_89_
*34 FE_OFCN115_mem_88_
*35 FE_OFCN116_mem_87_
*36 FE_OFCN117_mem_86_
*37 FE_OFCN118_mem_85_
*38 FE_OFCN119_mem_84_
*39 FE_OFCN120_mem_83_
*40 FE_OFCN121_mem_82_
*41 FE_OFCN122_mem_81_
*42 FE_OFCN123_mem_80_
*43 FE_OFCN124_matchN_11_
*44 FE_OFCN125_matchN_10_
*45 FE_OFCN126_matchN_9_
*46 FE_OFCN128_mem_62_
*47 FE_OFCN129_mem_61_
*48 FE_OFCN130_mem_60_
*49 FE_OFCN131_mem_59_
*50 FE_OFCN132_mem_58_
*51 FE_OFCN133_mem_57_
*52 FE_OFCN134_mem_56_
*53 FE_OFCN135_mem_55_
*54 FE_OFCN136_mem_54_
*55 FE_OFCN138_mem_52_
*56 FE_OFCN140_mem_50_
*57 FE_OFCN162_rank_22_
*58 FE_OFCN163_rank_21_
*59 FE_OFCN164_rank_23_
*60 FE_OFCN165_rank_14_
*61 FE_OFCN166_rank_12_
*62 FE_OFCN167_rank_13_
*63 FE_OFCN168_n3001
*64 FE_OFCN169_rank_8_
*65 FE_OFCN170_rank_6_
*66 FE_OFCN171_rank_7_
*67 FE_OFCN172_rank_11_
*68 FE_OFCN173_rank_9_
*69 FE_OFCN174_rank_10_
*70 FE_OFCN175_n3002
*71 FE_OFCN176_rank_5_
*72 FE_OFCN177_rank_3_
*73 FE_OFCN178_rank_4_
*74 FE_OFCN179_n1526
*75 FE_OFCN17_mem_4_
*76 FE_OFCN183_n1522
*77 FE_OFCN184_n1090
*78 FE_OFCN185_n1517
*79 FE_OFCN186_n1122
*80 FE_OFCN187_n1121
*81 FE_OFCN189_n1250
*82 FE_OFCN190_n1057
*83 FE_OFCN191_n1058
*84 FE_OFCN192_n1154
*85 FE_OFCN195_n1513
*86 FE_OFCN196_n1515
*87 FE_OFCN197_n1031
*88 FE_OFCN198_n1521
*89 FE_OFCN199_n1520
*90 FE_OFCN1_rank_1_
*91 FE_OFCN200_n1523
*92 FE_OFCN201_n1034
*93 FE_OFCN202_n1699
*94 FE_OFCN203_n1690
*95 FE_OFCN204_n1645
*96 FE_OFCN205_n1624
*97 FE_OFCN206_n1602
*98 FE_OFCN207_n1581
*99 FE_OFCN208_n1557
*100 FE_OFCN209_n1703
*101 FE_OFCN210_n1700
*102 FE_OFCN211_n1694
*103 FE_OFCN212_n1691
*104 FE_OFCN213_n1649
*105 FE_OFCN214_n1646
*106 FE_OFCN215_n1628
*107 FE_OFCN216_n1625
*108 FE_OFCN217_n1606
*109 FE_OFCN218_n1603
*110 FE_OFCN219_n1585
*111 FE_OFCN21_mem_0_
*112 FE_OFCN220_n1582
*113 FE_OFCN221_n1561
*114 FE_OFCN222_n1558
*115 FE_OFCN223_n1666
*116 FE_OFCN224_n1670
*117 FE_OFCN225_n1667
*118 FE_OFCN226_n1519
*119 FE_OFCN227_n1525
*120 FE_OFCN228_n1369
*121 FE_OFCN229_n1368
*122 FE_OFCN22_rank_20_
*123 FE_OFCN230_n1512
*124 FE_OFCN231_n1086
*125 FE_OFCN232_n1053
*126 FE_OFCN233_n1150
*127 FE_OFCN235_n1117
*128 FE_OFCN239_n1065
*129 FE_OFCN23_rank_18_
*130 FE_OFCN241_n1289
*131 FE_OFCN242_n1129
*132 FE_OFCN243_n1160
*133 FE_OFCN244_n1096
*134 FE_OFCN249_n1040
*135 FE_OFCN24_rank_19_
*136 FE_OFCN250_n1005
*137 FE_OFCN251_n988
*138 FE_OFCN255_n897
*139 FE_OFCN25_matchN_23_
*140 FE_OFCN261_n888
*141 FE_OFCN263_n886
*142 FE_OFCN266_n884
*143 FE_OFCN267_n928
*144 FE_OFCN268_n892
*145 FE_OFCN26_matchN_22_
*146 FE_OFCN275_n895
*147 FE_OFCN276_n889
*148 FE_OFCN277_n2990
*149 FE_OFCN278_n2993
*150 FE_OFCN279_n2996
*151 FE_OFCN27_matchN_21_
*152 FE_OFCN280_n1697
*153 FE_OFCN281_n1664
*154 FE_OFCN282_n1643
*155 FE_OFCN283_n1621
*156 FE_OFCN284_n1688
*157 FE_OFCN285_n1600
*158 FE_OFCN286_n1579
*159 FE_OFCN287_n1553
*160 FE_OFCN288_n1485
*161 FE_OFCN289_n1437
*162 FE_OFCN28_mem_127_
*163 FE_OFCN290_n1391
*164 FE_OFCN291_n1335
*165 FE_OFCN292_n1547
*166 FE_OFCN293_n1540
*167 FE_OFCN294_n1538
*168 FE_OFCN295_n1595
*169 FE_OFCN296_n1588
*170 FE_OFCN297_n1586
*171 FE_OFCN298_n1574
*172 FE_OFCN299_n1567
*173 FE_OFCN29_mem_126_
*174 FE_OFCN2_rank_2_
*175 FE_OFCN300_n1565
*176 FE_OFCN301_n1659
*177 FE_OFCN302_n1652
*178 FE_OFCN303_n1650
*179 FE_OFCN304_n1638
*180 FE_OFCN305_n1631
*181 FE_OFCN306_n1629
*182 FE_OFCN307_n1685
*183 FE_OFCN308_n1531
*184 FE_OFCN309_n1683
*185 FE_OFCN30_mem_125_
*186 FE_OFCN310_n1616
*187 FE_OFCN311_n1609
*188 FE_OFCN312_n1607
*189 FE_OFCN313_n1680
*190 FE_OFCN314_n1673
*191 FE_OFCN315_n1671
*192 FE_OFCN316_n1334
*193 FE_OFCN317_n1463
*194 FE_OFCN318_n1417
*195 FE_OFCN319_n1371
*196 FE_OFCN31_mem_124_
*197 FE_OFCN320_n1021
*198 FE_OFCN321_n883
*199 FE_OFCN322_n882
*200 FE_OFCN32_mem_123_
*201 FE_OFCN33_mem_122_
*202 FE_OFCN34_mem_121_
*203 FE_OFCN35_mem_120_
*204 FE_OFCN36_mem_119_
*205 FE_OFCN37_mem_118_
*206 FE_OFCN38_mem_117_
*207 FE_OFCN39_mem_116_
*208 FE_OFCN3_matchN_2_
*209 FE_OFCN40_mem_115_
*210 FE_OFCN41_mem_114_
*211 FE_OFCN42_mem_113_
*212 FE_OFCN43_mem_112_
*213 FE_OFCN44_n3000
*214 FE_OFCN45_rank_17_
*215 FE_OFCN46_rank_15_
*216 FE_OFCN47_rank_16_
*217 FE_OFCN48_mem_64_
*218 FE_OFCN49_mem_65_
*219 FE_OFCN4_matchN_1_
*220 FE_OFCN50_mem_66_
*221 FE_OFCN51_mem_67_
*222 FE_OFCN52_mem_68_
*223 FE_OFCN53_mem_69_
*224 FE_OFCN54_mem_70_
*225 FE_OFCN55_mem_71_
*226 FE_OFCN56_mem_72_
*227 FE_OFCN57_mem_73_
*228 FE_OFCN58_mem_75_
*229 FE_OFCN59_mem_76_
*230 FE_OFCN5_matchN_0_
*231 FE_OFCN60_mem_77_
*232 FE_OFCN61_mem_78_
*233 FE_OFCN62_mem_79_
*234 FE_OFCN63_matchN_12_
*235 FE_OFCN64_matchN_13_
*236 FE_OFCN65_matchN_14_
*237 FE_OFCN67_mem_33_
*238 FE_OFCN71_mem_37_
*239 FE_OFCN73_mem_39_
*240 FE_OFCN80_mem_46_
*241 FE_OFCN85_matchN_20_
*242 FE_OFCN86_matchN_19_
*243 FE_OFCN87_matchN_18_
*244 FE_OFCN88_mem_111_
*245 FE_OFCN89_mem_110_
*246 FE_OFCN90_mem_109_
*247 FE_OFCN91_mem_108_
*248 FE_OFCN92_mem_107_
*249 FE_OFCN93_mem_106_
*250 FE_OFCN94_mem_104_
*251 FE_OFCN95_mem_103_
*252 FE_OFCN96_mem_102_
*253 FE_OFCN97_mem_101_
*254 FE_OFCN98_mem_100_
*255 FE_OFCN99_mem_99_
*256 FE_PHN333_FE_OFCN322_n882
*257 FE_PHN334_FE_OFCN322_n882
*258 FE_PHN335_n2879
*259 FE_PHN336_n2878
*260 FE_PHN337_n86
*261 FE_PHN338_n2851
*262 FE_PHN339_n2877
*263 FE_PHN340_j_3_
*264 FE_PHN341_last_1_
*265 FE_PHN342_n2889
*266 FE_PHN343_n2877
*267 FE_PHN344_n2851
*268 FE_PHN345_n2851
*269 FE_PHN346_n2877
*270 FE_PHN347_last_1_
*271 FE_PHN348_last_1_
*272 FE_PSN323_n975
*273 FE_PSN324_n926
*274 FE_PSN325_n991
*275 FE_PSN326_n944
*276 FE_PSN327_n878
*277 FE_PSN328_n1003
*278 FE_PSN329_FE_OFCN261_n888
*279 FE_PSN330_n960
*280 FE_PSN331_FE_OFCN261_n888
*281 FE_PSN332_FE_OFCN261_n888
*282 WE
*283 clk
*284 clk__L1_N0
*285 clk__L2_N0
*286 j_3_
*287 last[0]
*288 last[1]
*289 last[2]
*290 m
*291 match
*292 matchN[0]
*293 matchN[10]
*294 matchN[11]
*295 matchN[12]
*296 matchN[13]
*297 matchN[14]
*298 matchN[15]
*299 matchN[16]
*300 matchN[17]
*301 matchN[18]
*302 matchN[19]
*303 matchN[1]
*304 matchN[20]
*305 matchN[21]
*306 matchN[22]
*307 matchN[23]
*308 matchN[2]
*309 matchN[3]
*310 matchN[4]
*311 matchN[5]
*312 matchN[6]
*313 matchN[7]
*314 matchN[8]
*315 matchN[9]
*316 match_addr[0]
*317 match_addr[1]
*318 match_addr[2]
*319 mem[0]
*320 mem[100]
*321 mem[101]
*322 mem[102]
*323 mem[103]
*324 mem[104]
*325 mem[105]
*326 mem[106]
*327 mem[107]
*328 mem[108]
*329 mem[109]
*330 mem[10]
*331 mem[110]
*332 mem[111]
*333 mem[112]
*334 mem[113]
*335 mem[114]
*336 mem[115]
*337 mem[116]
*338 mem[117]
*339 mem[118]
*340 mem[119]
*341 mem[11]
*342 mem[120]
*343 mem[121]
*344 mem[122]
*345 mem[123]
*346 mem[124]
*347 mem[125]
*348 mem[126]
*349 mem[127]
*350 mem[12]
*351 mem[13]
*352 mem[14]
*353 mem[15]
*354 mem[16]
*355 mem[17]
*356 mem[18]
*357 mem[19]
*358 mem[1]
*359 mem[20]
*360 mem[21]
*361 mem[22]
*362 mem[23]
*363 mem[24]
*364 mem[25]
*365 mem[26]
*366 mem[27]
*367 mem[28]
*368 mem[29]
*369 mem[2]
*370 mem[30]
*371 mem[31]
*372 mem[32]
*373 mem[33]
*374 mem[34]
*375 mem[35]
*376 mem[36]
*377 mem[37]
*378 mem[38]
*379 mem[39]
*380 mem[3]
*381 mem[40]
*382 mem[41]
*383 mem[42]
*384 mem[43]
*385 mem[44]
*386 mem[45]
*387 mem[46]
*388 mem[47]
*389 mem[48]
*390 mem[49]
*391 mem[4]
*392 mem[50]
*393 mem[51]
*394 mem[52]
*395 mem[53]
*396 mem[54]
*397 mem[55]
*398 mem[56]
*399 mem[57]
*400 mem[58]
*401 mem[59]
*402 mem[5]
*403 mem[60]
*404 mem[61]
*405 mem[62]
*406 mem[63]
*407 mem[64]
*408 mem[65]
*409 mem[66]
*410 mem[67]
*411 mem[68]
*412 mem[69]
*413 mem[6]
*414 mem[70]
*415 mem[71]
*416 mem[72]
*417 mem[73]
*418 mem[74]
*419 mem[75]
*420 mem[76]
*421 mem[77]
*422 mem[78]
*423 mem[79]
*424 mem[7]
*425 mem[80]
*426 mem[81]
*427 mem[82]
*428 mem[83]
*429 mem[84]
*430 mem[85]
*431 mem[86]
*432 mem[87]
*433 mem[88]
*434 mem[89]
*435 mem[8]
*436 mem[90]
*437 mem[91]
*438 mem[92]
*439 mem[93]
*440 mem[94]
*441 mem[95]
*442 mem[96]
*443 mem[97]
*444 mem[98]
*445 mem[99]
*446 mem[9]
*447 n1000
*448 n1001
*449 n1002
*450 n1003
*451 n1005
*452 n1007
*453 n1009
*454 n1010
*455 n1011
*456 n1013
*457 n1014
*458 n1015
*459 n1016
*460 n1017
*461 n1018
*462 n1021
*463 n1023
*464 n1025
*465 n1027
*466 n1028
*467 n1030
*468 n1031
*469 n1033
*470 n1034
*471 n1036
*472 n1037
*473 n1039
*474 n1040
*475 n1041
*476 n1042
*477 n1043
*478 n1044
*479 n1045
*480 n1046
*481 n1047
*482 n1049
*483 n1051
*484 n1053
*485 n1054
*486 n1055
*487 n1057
*488 n1058
*489 n1064
*490 n1065
*491 n1066
*492 n1067
*493 n1069
*494 n1071
*495 n1072
*496 n1073
*497 n1074
*498 n1075
*499 n1076
*500 n1077
*501 n1078
*502 n1079
*503 n1080
*504 n1081
*505 n1082
*506 n1083
*507 n1084
*508 n1086
*509 n1087
*510 n1088
*511 n1090
*512 n1092
*513 n1095
*514 n1096
*515 n1097
*516 n1098
*517 n1099
*518 n1100
*519 n1101
*520 n1102
*521 n1103
*522 n1104
*523 n1105
*524 n1106
*525 n1107
*526 n1108
*527 n1109
*528 n1110
*529 n1111
*530 n1113
*531 n1115
*532 n1117
*533 n1118
*534 n1119
*535 n1121
*536 n1122
*537 n1128
*538 n1129
*539 n1130
*540 n1131
*541 n1133
*542 n1135
*543 n1136
*544 n1137
*545 n1138
*546 n1139
*547 n1140
*548 n1141
*549 n1142
*550 n1143
*551 n1144
*552 n1145
*553 n1146
*554 n1147
*555 n1148
*556 n1150
*557 n1151
*558 n1152
*559 n1154
*560 n1156
*561 n1159
*562 n1160
*563 n1161
*564 n1162
*565 n1163
*566 n1164
*567 n1165
*568 n1166
*569 n1167
*570 n1168
*571 n1169
*572 n1170
*573 n1171
*574 n1172
*575 n1173
*576 n1174
*577 n1175
*578 n1176
*579 n1178
*580 n1180
*581 n1182
*582 n1183
*583 n1184
*584 n1186
*585 n1187
*586 n1193
*587 n1194
*588 n1195
*589 n1196
*590 n1198
*591 n1200
*592 n1201
*593 n1202
*594 n1203
*595 n1204
*596 n1205
*597 n1206
*598 n1207
*599 n1208
*600 n1209
*601 n1210
*602 n1211
*603 n1212
*604 n1213
*605 n1215
*606 n1216
*607 n1217
*608 n1219
*609 n1221
*610 n1224
*611 n1225
*612 n1226
*613 n1227
*614 n1228
*615 n1229
*616 n1230
*617 n1231
*618 n1232
*619 n1233
*620 n1234
*621 n1235
*622 n1236
*623 n1237
*624 n1238
*625 n1239
*626 n1240
*627 n1242
*628 n1244
*629 n1246
*630 n1247
*631 n1248
*632 n1250
*633 n1251
*634 n1257
*635 n1258
*636 n1259
*637 n1260
*638 n1262
*639 n1264
*640 n1265
*641 n1266
*642 n1267
*643 n1268
*644 n1269
*645 n1270
*646 n1271
*647 n1272
*648 n1273
*649 n1274
*650 n1275
*651 n1276
*652 n1277
*653 n1279
*654 n1280
*655 n1281
*656 n1283
*657 n1285
*658 n1288
*659 n1289
*660 n1290
*661 n1291
*662 n1292
*663 n1293
*664 n1294
*665 n1295
*666 n1296
*667 n1297
*668 n1298
*669 n1299
*670 n1300
*671 n1301
*672 n1302
*673 n1303
*674 n1304
*675 n1305
*676 n1306
*677 n1307
*678 n1308
*679 n1309
*680 n1310
*681 n1311
*682 n1312
*683 n1313
*684 n1314
*685 n1315
*686 n1317
*687 n1319
*688 n1321
*689 n1323
*690 n1325
*691 n1327
*692 n1329
*693 n1331
*694 n1334
*695 n1335
*696 n1336
*697 n1337
*698 n1338
*699 n1339
*700 n1342
*701 n1345
*702 n1348
*703 n1350
*704 n1352
*705 n1354
*706 n1356
*707 n1358
*708 n1360
*709 n1362
*710 n1363
*711 n1364
*712 n1365
*713 n1366
*714 n1367
*715 n1368
*716 n1369
*717 n1371
*718 n1372
*719 n1373
*720 n1374
*721 n1375
*722 n1376
*723 n1377
*724 n1378
*725 n1379
*726 n1380
*727 n1381
*728 n1382
*729 n1383
*730 n1384
*731 n1385
*732 n1386
*733 n1387
*734 n1388
*735 n1389
*736 n1390
*737 n1391
*738 n1392
*739 n1393
*740 n1395
*741 n1396
*742 n1398
*743 n1400
*744 n1402
*745 n1403
*746 n1404
*747 n1405
*748 n1406
*749 n1407
*750 n1409
*751 n1411
*752 n1412
*753 n1413
*754 n1414
*755 n1415
*756 n1416
*757 n1417
*758 n1418
*759 n1419
*760 n1420
*761 n1421
*762 n1422
*763 n1423
*764 n1424
*765 n1425
*766 n1426
*767 n1427
*768 n1428
*769 n1429
*770 n1430
*771 n1431
*772 n1432
*773 n1433
*774 n1434
*775 n1435
*776 n1436
*777 n1437
*778 n1438
*779 n1439
*780 n1441
*781 n1442
*782 n1444
*783 n1446
*784 n1448
*785 n1449
*786 n1450
*787 n1451
*788 n1452
*789 n1453
*790 n1455
*791 n1457
*792 n1458
*793 n1459
*794 n1460
*795 n1461
*796 n1462
*797 n1463
*798 n1464
*799 n1465
*800 n1466
*801 n1467
*802 n1468
*803 n1469
*804 n1470
*805 n1471
*806 n1472
*807 n1473
*808 n1474
*809 n1475
*810 n1476
*811 n1477
*812 n1478
*813 n1479
*814 n1480
*815 n1481
*816 n1482
*817 n1483
*818 n1485
*819 n1486
*820 n1487
*821 n1488
*822 n1490
*823 n1492
*824 n1494
*825 n1495
*826 n1496
*827 n1497
*828 n1498
*829 n1499
*830 n1501
*831 n1503
*832 n1504
*833 n1505
*834 n1506
*835 n1507
*836 n1508
*837 n1509
*838 n1512
*839 n1513
*840 n1514
*841 n1515
*842 n1517
*843 n1519
*844 n1520
*845 n1521
*846 n1522
*847 n1523
*848 n1524
*849 n1525
*850 n1526
*851 n1527
*852 n1528
*853 n1531
*854 n1533
*855 n1534
*856 n1535
*857 n1538
*858 n1540
*859 n1542
*860 n1545
*861 n1547
*862 n1548
*863 n1550
*864 n1553
*865 n1554
*866 n1556
*867 n1557
*868 n1558
*869 n1559
*870 n1560
*871 n1561
*872 n1565
*873 n1567
*874 n1569
*875 n1572
*876 n1574
*877 n1575
*878 n1577
*879 n1579
*880 n1580
*881 n1581
*882 n1582
*883 n1583
*884 n1584
*885 n1585
*886 n1586
*887 n1588
*888 n1590
*889 n1593
*890 n1595
*891 n1596
*892 n1598
*893 n1600
*894 n1601
*895 n1602
*896 n1603
*897 n1604
*898 n1605
*899 n1606
*900 n1607
*901 n1609
*902 n1611
*903 n1614
*904 n1616
*905 n1617
*906 n1619
*907 n1621
*908 n1622
*909 n1623
*910 n1624
*911 n1625
*912 n1626
*913 n1627
*914 n1628
*915 n1629
*916 n1631
*917 n1633
*918 n1636
*919 n1638
*920 n1639
*921 n1641
*922 n1643
*923 n1644
*924 n1645
*925 n1646
*926 n1647
*927 n1648
*928 n1649
*929 n1650
*930 n1652
*931 n1654
*932 n1657
*933 n1659
*934 n1660
*935 n1662
*936 n1664
*937 n1665
*938 n1666
*939 n1667
*940 n1668
*941 n1669
*942 n1670
*943 n1671
*944 n1673
*945 n1675
*946 n1678
*947 n1680
*948 n1681
*949 n1683
*950 n1685
*951 n1686
*952 n1688
*953 n1689
*954 n1690
*955 n1691
*956 n1692
*957 n1693
*958 n1694
*959 n1695
*960 n1697
*961 n1698
*962 n1699
*963 n1700
*964 n1701
*965 n1702
*966 n1703
*967 n1708
*968 n1716
*969 n1781
*970 n1844
*971 n1890
*972 n1892
*973 n1893
*974 n1894
*975 n1895
*976 n1896
*977 n1897
*978 n1898
*979 n1899
*980 n1900
*981 n1901
*982 n1902
*983 n1903
*984 n1904
*985 n1905
*986 n1906
*987 n1907
*988 n1908
*989 n1909
*990 n1910
*991 n1911
*992 n1912
*993 n1913
*994 n1914
*995 n1915
*996 n1916
*997 n1917
*998 n1918
*999 n1919
*1000 n1920
*1001 n1921
*1002 n1922
*1003 n1923
*1004 n1924
*1005 n1925
*1006 n1926
*1007 n1927
*1008 n1928
*1009 n1929
*1010 n1930
*1011 n1931
*1012 n1932
*1013 n1933
*1014 n1934
*1015 n1935
*1016 n1936
*1017 n1937
*1018 n1938
*1019 n1939
*1020 n1940
*1021 n1941
*1022 n1942
*1023 n1943
*1024 n1944
*1025 n1945
*1026 n1946
*1027 n1947
*1028 n1948
*1029 n1949
*1030 n1950
*1031 n1951
*1032 n1952
*1033 n1953
*1034 n1954
*1035 n1955
*1036 n1956
*1037 n1957
*1038 n1958
*1039 n1959
*1040 n1960
*1041 n1961
*1042 n1962
*1043 n1963
*1044 n1964
*1045 n1965
*1046 n1966
*1047 n1967
*1048 n1968
*1049 n1969
*1050 n1970
*1051 n1971
*1052 n1972
*1053 n1973
*1054 n1974
*1055 n1975
*1056 n1976
*1057 n1977
*1058 n1978
*1059 n1979
*1060 n1980
*1061 n1981
*1062 n1982
*1063 n1983
*1064 n1984
*1065 n1985
*1066 n1986
*1067 n1987
*1068 n1988
*1069 n1989
*1070 n1990
*1071 n1991
*1072 n1992
*1073 n1993
*1074 n1994
*1075 n1995
*1076 n1996
*1077 n1997
*1078 n1998
*1079 n1999
*1080 n2000
*1081 n2001
*1082 n2002
*1083 n2003
*1084 n2004
*1085 n2005
*1086 n2006
*1087 n2007
*1088 n2008
*1089 n2009
*1090 n2010
*1091 n2011
*1092 n2012
*1093 n2013
*1094 n2014
*1095 n2015
*1096 n2016
*1097 n2017
*1098 n2018
*1099 n2019
*1100 n2020
*1101 n2021
*1102 n2022
*1103 n2023
*1104 n2024
*1105 n2025
*1106 n2026
*1107 n2027
*1108 n2028
*1109 n2029
*1110 n2030
*1111 n2031
*1112 n2032
*1113 n2033
*1114 n2034
*1115 n2035
*1116 n2036
*1117 n2037
*1118 n2038
*1119 n2039
*1120 n2040
*1121 n2041
*1122 n2042
*1123 n2043
*1124 n2044
*1125 n2045
*1126 n2046
*1127 n2047
*1128 n2048
*1129 n2049
*1130 n2050
*1131 n2051
*1132 n2052
*1133 n2053
*1134 n2054
*1135 n2055
*1136 n2056
*1137 n2057
*1138 n2058
*1139 n2059
*1140 n2060
*1141 n2061
*1142 n2062
*1143 n2063
*1144 n2064
*1145 n2065
*1146 n2066
*1147 n2067
*1148 n2068
*1149 n2069
*1150 n2070
*1151 n2071
*1152 n2072
*1153 n2073
*1154 n2166
*1155 n2167
*1156 n2168
*1157 n2169
*1158 n2170
*1159 n2171
*1160 n2172
*1161 n2173
*1162 n2174
*1163 n2175
*1164 n2176
*1165 n2177
*1166 n2178
*1167 n2179
*1168 n2180
*1169 n2181
*1170 n2182
*1171 n2183
*1172 n2184
*1173 n2185
*1174 n2186
*1175 n2187
*1176 n2188
*1177 n2189
*1178 n2190
*1179 n2191
*1180 n2192
*1181 n2193
*1182 n2194
*1183 n2195
*1184 n2196
*1185 n2197
*1186 n2198
*1187 n2199
*1188 n2200
*1189 n2201
*1190 n2202
*1191 n2203
*1192 n2204
*1193 n2205
*1194 n2206
*1195 n2207
*1196 n2208
*1197 n2209
*1198 n2210
*1199 n2211
*1200 n2212
*1201 n2213
*1202 n2214
*1203 n2215
*1204 n2216
*1205 n2217
*1206 n2218
*1207 n2219
*1208 n2220
*1209 n2221
*1210 n2222
*1211 n2223
*1212 n2224
*1213 n2225
*1214 n2226
*1215 n2227
*1216 n2228
*1217 n2229
*1218 n2230
*1219 n2231
*1220 n2232
*1221 n2233
*1222 n2234
*1223 n2235
*1224 n2236
*1225 n2237
*1226 n2238
*1227 n2239
*1228 n2240
*1229 n2241
*1230 n2242
*1231 n2243
*1232 n2244
*1233 n2246
*1234 n2247
*1235 n2250
*1236 n2251
*1237 n2252
*1238 n2267
*1239 n2268
*1240 n2269
*1241 n2270
*1242 n2288
*1243 n2289
*1244 n2290
*1245 n2291
*1246 n2292
*1247 n2293
*1248 n2294
*1249 n2295
*1250 n2296
*1251 n2297
*1252 n2298
*1253 n2299
*1254 n2300
*1255 n2301
*1256 n2304
*1257 n2309
*1258 n2312
*1259 n2313
*1260 n2314
*1261 n2315
*1262 n2316
*1263 n2317
*1264 n2318
*1265 n2319
*1266 n2320
*1267 n2321
*1268 n2322
*1269 n2323
*1270 n2324
*1271 n2325
*1272 n2326
*1273 n2327
*1274 n2328
*1275 n2329
*1276 n233
*1277 n2330
*1278 n2331
*1279 n2332
*1280 n2333
*1281 n2334
*1282 n2335
*1283 n2336
*1284 n2337
*1285 n2338
*1286 n2339
*1287 n2340
*1288 n2341
*1289 n2342
*1290 n2343
*1291 n2344
*1292 n2345
*1293 n2346
*1294 n2347
*1295 n2348
*1296 n2349
*1297 n235
*1298 n2350
*1299 n2351
*1300 n2354
*1301 n2355
*1302 n2356
*1303 n2357
*1304 n2358
*1305 n2359
*1306 n236
*1307 n2360
*1308 n2361
*1309 n2362
*1310 n2363
*1311 n2364
*1312 n2365
*1313 n2366
*1314 n2367
*1315 n2368
*1316 n2369
*1317 n2370
*1318 n2371
*1319 n2372
*1320 n2373
*1321 n2374
*1322 n2375
*1323 n2376
*1324 n2377
*1325 n2378
*1326 n2379
*1327 n238
*1328 n2380
*1329 n2381
*1330 n2383
*1331 n2386
*1332 n2387
*1333 n2388
*1334 n2389
*1335 n2390
*1336 n2391
*1337 n2392
*1338 n2393
*1339 n2394
*1340 n2396
*1341 n2398
*1342 n2400
*1343 n2406
*1344 n2407
*1345 n2408
*1346 n2409
*1347 n2410
*1348 n2411
*1349 n2412
*1350 n2413
*1351 n2415
*1352 n2417
*1353 n2420
*1354 n2421
*1355 n2422
*1356 n2423
*1357 n2424
*1358 n2425
*1359 n2426
*1360 n2427
*1361 n2428
*1362 n2429
*1363 n2430
*1364 n2431
*1365 n2432
*1366 n2433
*1367 n2434
*1368 n2436
*1369 n2437
*1370 n2438
*1371 n2439
*1372 n2440
*1373 n2441
*1374 n2442
*1375 n2443
*1376 n2444
*1377 n2445
*1378 n2446
*1379 n2447
*1380 n2448
*1381 n2449
*1382 n2450
*1383 n2451
*1384 n2452
*1385 n2453
*1386 n2454
*1387 n2455
*1388 n2456
*1389 n2457
*1390 n2458
*1391 n2459
*1392 n2460
*1393 n2461
*1394 n2462
*1395 n2463
*1396 n2464
*1397 n2465
*1398 n2466
*1399 n2467
*1400 n2468
*1401 n2469
*1402 n2472
*1403 n2473
*1404 n2474
*1405 n2475
*1406 n2476
*1407 n2477
*1408 n2478
*1409 n2479
*1410 n2480
*1411 n2481
*1412 n2482
*1413 n2483
*1414 n2484
*1415 n2485
*1416 n2486
*1417 n2487
*1418 n2488
*1419 n2489
*1420 n2490
*1421 n2491
*1422 n2492
*1423 n2493
*1424 n2494
*1425 n2495
*1426 n2496
*1427 n2497
*1428 n2498
*1429 n250
*1430 n2501
*1431 n2502
*1432 n2505
*1433 n2506
*1434 n2507
*1435 n2508
*1436 n2509
*1437 n251
*1438 n2510
*1439 n2511
*1440 n2512
*1441 n2513
*1442 n2514
*1443 n2515
*1444 n2516
*1445 n2517
*1446 n2518
*1447 n2519
*1448 n252
*1449 n2520
*1450 n2521
*1451 n2522
*1452 n2523
*1453 n2524
*1454 n2526
*1455 n2527
*1456 n2528
*1457 n2537
*1458 n2545
*1459 n2546
*1460 n2547
*1461 n2548
*1462 n2549
*1463 n2550
*1464 n2551
*1465 n2552
*1466 n2553
*1467 n2554
*1468 n2555
*1469 n2556
*1470 n2557
*1471 n2558
*1472 n2559
*1473 n2560
*1474 n2561
*1475 n2562
*1476 n2563
*1477 n2564
*1478 n2586
*1479 n2592
*1480 n2594
*1481 n2595
*1482 n2598
*1483 n2599
*1484 n2600
*1485 n2601
*1486 n2602
*1487 n2603
*1488 n2604
*1489 n2605
*1490 n2606
*1491 n2607
*1492 n2608
*1493 n2609
*1494 n2613
*1495 n2614
*1496 n2615
*1497 n2616
*1498 n2622
*1499 n2666
*1500 n2667
*1501 n2668
*1502 n2669
*1503 n2670
*1504 n2671
*1505 n2672
*1506 n2673
*1507 n2699
*1508 n2730
*1509 n2739
*1510 n2740
*1511 n2741
*1512 n2742
*1513 n2743
*1514 n2744
*1515 n2745
*1516 n2746
*1517 n2749
*1518 n2751
*1519 n2752
*1520 n2754
*1521 n2755
*1522 n2756
*1523 n2757
*1524 n2758
*1525 n2759
*1526 n2760
*1527 n2761
*1528 n2762
*1529 n2763
*1530 n2764
*1531 n2765
*1532 n2766
*1533 n2767
*1534 n2768
*1535 n2769
*1536 n2770
*1537 n2771
*1538 n2772
*1539 n2773
*1540 n2774
*1541 n2779
*1542 n2780
*1543 n2781
*1544 n2782
*1545 n2783
*1546 n2784
*1547 n2785
*1548 n2786
*1549 n2787
*1550 n2788
*1551 n2789
*1552 n2790
*1553 n2795
*1554 n2796
*1555 n2797
*1556 n2798
*1557 n2799
*1558 n2800
*1559 n2801
*1560 n2802
*1561 n2803
*1562 n2804
*1563 n2805
*1564 n2806
*1565 n2807
*1566 n2808
*1567 n2809
*1568 n2810
*1569 n2811
*1570 n2812
*1571 n2813
*1572 n2814
*1573 n2815
*1574 n2816
*1575 n2817
*1576 n2818
*1577 n2819
*1578 n2820
*1579 n2821
*1580 n2822
*1581 n2823
*1582 n2824
*1583 n2825
*1584 n2826
*1585 n2827
*1586 n2828
*1587 n2829
*1588 n2830
*1589 n2831
*1590 n2832
*1591 n2833
*1592 n2834
*1593 n2835
*1594 n2836
*1595 n2837
*1596 n2838
*1597 n2839
*1598 n2840
*1599 n2841
*1600 n2842
*1601 n2843
*1602 n2844
*1603 n2845
*1604 n2846
*1605 n2847
*1606 n2848
*1607 n2849
*1608 n2850
*1609 n2851
*1610 n2852
*1611 n2853
*1612 n2854
*1613 n2855
*1614 n2856
*1615 n2857
*1616 n2858
*1617 n2859
*1618 n2860
*1619 n2861
*1620 n2862
*1621 n2863
*1622 n2864
*1623 n2865
*1624 n2866
*1625 n2867
*1626 n2868
*1627 n2869
*1628 n2870
*1629 n2871
*1630 n2872
*1631 n2873
*1632 n2874
*1633 n2875
*1634 n2876
*1635 n2877
*1636 n2878
*1637 n2879
*1638 n2880
*1639 n2881
*1640 n2882
*1641 n2883
*1642 n2884
*1643 n2885
*1644 n2886
*1645 n2887
*1646 n2888
*1647 n2889
*1648 n2890
*1649 n2891
*1650 n2892
*1651 n2893
*1652 n2894
*1653 n2895
*1654 n2896
*1655 n2897
*1656 n2898
*1657 n2899
*1658 n2900
*1659 n2901
*1660 n2902
*1661 n2903
*1662 n2904
*1663 n2905
*1664 n2906
*1665 n2907
*1666 n2908
*1667 n2909
*1668 n2910
*1669 n2911
*1670 n2912
*1671 n2913
*1672 n2914
*1673 n2915
*1674 n2916
*1675 n2917
*1676 n2918
*1677 n2919
*1678 n2920
*1679 n2921
*1680 n2922
*1681 n2923
*1682 n2924
*1683 n2925
*1684 n2926
*1685 n2927
*1686 n2928
*1687 n2929
*1688 n2930
*1689 n2931
*1690 n2932
*1691 n2933
*1692 n2934
*1693 n2935
*1694 n2936
*1695 n2937
*1696 n2938
*1697 n2939
*1698 n2940
*1699 n2941
*1700 n2942
*1701 n2943
*1702 n2944
*1703 n2945
*1704 n2946
*1705 n2947
*1706 n2948
*1707 n2949
*1708 n2950
*1709 n2951
*1710 n2952
*1711 n2953
*1712 n2954
*1713 n2955
*1714 n2956
*1715 n2957
*1716 n2958
*1717 n2959
*1718 n2960
*1719 n2961
*1720 n2962
*1721 n2963
*1722 n2964
*1723 n2965
*1724 n2966
*1725 n2967
*1726 n2968
*1727 n2969
*1728 n2970
*1729 n2971
*1730 n2972
*1731 n2973
*1732 n2974
*1733 n2975
*1734 n2976
*1735 n2977
*1736 n2978
*1737 n2979
*1738 n2980
*1739 n2981
*1740 n2982
*1741 n2983
*1742 n2984
*1743 n2985
*1744 n2986
*1745 n2987
*1746 n2988
*1747 n2989
*1748 n2990
*1749 n2991
*1750 n2992
*1751 n2993
*1752 n2994
*1753 n2995
*1754 n2996
*1755 n2997
*1756 n2998
*1757 n2999
*1758 n3000
*1759 n3001
*1760 n3002
*1761 n84
*1762 n85
*1763 n86
*1764 n868
*1765 n87
*1766 n870
*1767 n873
*1768 n874
*1769 n876
*1770 n878
*1771 n879
*1772 n88
*1773 n880
*1774 n881
*1775 n882
*1776 n883
*1777 n884
*1778 n885
*1779 n886
*1780 n887
*1781 n888
*1782 n889
*1783 n89
*1784 n890
*1785 n891
*1786 n892
*1787 n895
*1788 n897
*1789 n900
*1790 n901
*1791 n902
*1792 n903
*1793 n904
*1794 n905
*1795 n906
*1796 n908
*1797 n909
*1798 n910
*1799 n911
*1800 n912
*1801 n914
*1802 n915
*1803 n916
*1804 n917
*1805 n919
*1806 n921
*1807 n923
*1808 n925
*1809 n926
*1810 n928
*1811 n929
*1812 n930
*1813 n932
*1814 n936
*1815 n937
*1816 n938
*1817 n939
*1818 n940
*1819 n941
*1820 n943
*1821 n944
*1822 n945
*1823 n946
*1824 n948
*1825 n952
*1826 n953
*1827 n954
*1828 n955
*1829 n956
*1830 n957
*1831 n959
*1832 n960
*1833 n961
*1834 n962
*1835 n964
*1836 n967
*1837 n968
*1838 n969
*1839 n970
*1840 n971
*1841 n972
*1842 n974
*1843 n975
*1844 n976
*1845 n977
*1846 n979
*1847 n983
*1848 n984
*1849 n985
*1850 n986
*1851 n987
*1852 n988
*1853 n990
*1854 n991
*1855 n992
*1856 n993
*1857 n995
*1858 n998
*1859 n999
*1860 rank[0]
*1861 rank[10]
*1862 rank[11]
*1863 rank[12]
*1864 rank[13]
*1865 rank[14]
*1866 rank[15]
*1867 rank[16]
*1868 rank[17]
*1869 rank[18]
*1870 rank[19]
*1871 rank[1]
*1872 rank[20]
*1873 rank[21]
*1874 rank[22]
*1875 rank[23]
*1876 rank[2]
*1877 rank[3]
*1878 rank[4]
*1879 rank[5]
*1880 rank[6]
*1881 rank[7]
*1882 rank[8]
*1883 rank[9]
*1884 reset
*1885 FE_PHC348_last_1_
*1886 FE_PHC347_last_1_
*1887 FE_PHC346_n2877
*1888 FE_PHC345_n2851
*1889 FE_PHC344_n2851
*1890 FE_PHC343_n2877
*1891 FE_PHC342_n2889
*1892 FE_PHC341_last_1_
*1893 FE_PHC340_j_3_
*1894 FE_PHC339_n2877
*1895 FE_PHC338_n2851
*1896 FE_PHC337_n86
*1897 FE_PHC336_n2878
*1898 FE_PHC335_n2879
*1899 FE_PHC334_FE_OFCN322_n882
*1900 FE_PHC333_FE_OFCN322_n882
*1901 FE_PSC332_FE_OFCN261_n888
*1902 FE_PSC331_FE_OFCN261_n888
*1903 FE_PSC330_n960
*1904 FE_PSC329_FE_OFCN261_n888
*1905 FE_PSC328_n1003
*1906 FE_PSC327_n878
*1907 FE_PSC326_n944
*1908 FE_PSC325_n991
*1909 FE_PSC324_n926
*1910 FE_PSC323_n975
*1911 FE_OFCC322_n882
*1912 FE_OFCC321_n883
*1913 FE_OFCC320_n1021
*1914 FE_OFCC319_n1371
*1915 FE_OFCC318_n1417
*1916 FE_OFCC317_n1463
*1917 FE_OFCC316_n1334
*1918 FE_OFCC315_n1671
*1919 FE_OFCC314_n1673
*1920 FE_OFCC313_n1680
*1921 FE_OFCC312_n1607
*1922 FE_OFCC311_n1609
*1923 FE_OFCC310_n1616
*1924 FE_OFCC309_n1683
*1925 FE_OFCC308_n1531
*1926 FE_OFCC307_n1685
*1927 FE_OFCC306_n1629
*1928 FE_OFCC305_n1631
*1929 FE_OFCC304_n1638
*1930 FE_OFCC303_n1650
*1931 FE_OFCC302_n1652
*1932 FE_OFCC301_n1659
*1933 FE_OFCC300_n1565
*1934 FE_OFCC299_n1567
*1935 FE_OFCC298_n1574
*1936 FE_OFCC297_n1586
*1937 FE_OFCC296_n1588
*1938 FE_OFCC295_n1595
*1939 FE_OFCC294_n1538
*1940 FE_OFCC293_n1540
*1941 FE_OFCC292_n1547
*1942 FE_OFCC291_n1335
*1943 FE_OFCC290_n1391
*1944 FE_OFCC289_n1437
*1945 FE_OFCC288_n1485
*1946 FE_OFCC287_n1553
*1947 FE_OFCC286_n1579
*1948 FE_OFCC285_n1600
*1949 FE_OFCC284_n1688
*1950 FE_OFCC283_n1621
*1951 FE_OFCC282_n1643
*1952 FE_OFCC281_n1664
*1953 FE_OFCC280_n1697
*1954 FE_OFCC279_n2996
*1955 FE_OFCC278_n2993
*1956 FE_OFCC277_n2990
*1957 FE_OFCC276_n889
*1958 FE_OFCC275_n895
*1959 FE_OFCC268_n892
*1960 FE_OFCC267_n928
*1961 FE_OFCC266_n884
*1962 FE_OFCC263_n886
*1963 FE_OFCC261_n888
*1964 FE_OFCC255_n897
*1965 FE_OFCC251_n988
*1966 FE_OFCC250_n1005
*1967 FE_OFCC249_n1040
*1968 FE_OFCC244_n1096
*1969 FE_OFCC243_n1160
*1970 FE_OFCC242_n1129
*1971 FE_OFCC241_n1289
*1972 FE_OFCC239_n1065
*1973 FE_OFCC235_n1117
*1974 FE_OFCC233_n1150
*1975 FE_OFCC232_n1053
*1976 FE_OFCC231_n1086
*1977 FE_OFCC230_n1512
*1978 FE_OFCC229_n1368
*1979 FE_OFCC228_n1369
*1980 FE_OFCC227_n1525
*1981 FE_OFCC226_n1519
*1982 FE_OFCC225_n1667
*1983 FE_OFCC224_n1670
*1984 FE_OFCC223_n1666
*1985 FE_OFCC222_n1558
*1986 FE_OFCC221_n1561
*1987 FE_OFCC220_n1582
*1988 FE_OFCC219_n1585
*1989 FE_OFCC218_n1603
*1990 FE_OFCC217_n1606
*1991 FE_OFCC216_n1625
*1992 FE_OFCC215_n1628
*1993 FE_OFCC214_n1646
*1994 FE_OFCC213_n1649
*1995 FE_OFCC212_n1691
*1996 FE_OFCC211_n1694
*1997 FE_OFCC210_n1700
*1998 FE_OFCC209_n1703
*1999 FE_OFCC208_n1557
*2000 FE_OFCC207_n1581
*2001 FE_OFCC206_n1602
*2002 FE_OFCC205_n1624
*2003 FE_OFCC204_n1645
*2004 FE_OFCC203_n1690
*2005 FE_OFCC202_n1699
*2006 FE_OFCC201_n1034
*2007 FE_OFCC200_n1523
*2008 FE_OFCC199_n1520
*2009 FE_OFCC198_n1521
*2010 FE_OFCC197_n1031
*2011 FE_OFCC196_n1515
*2012 FE_OFCC195_n1513
*2013 FE_OFCC192_n1154
*2014 FE_OFCC191_n1058
*2015 FE_OFCC190_n1057
*2016 FE_OFCC189_n1250
*2017 FE_OFCC187_n1121
*2018 FE_OFCC186_n1122
*2019 FE_OFCC185_n1517
*2020 FE_OFCC184_n1090
*2021 FE_OFCC183_n1522
*2022 FE_OFCC179_n1526
*2023 FE_OFCC178_rank_4_
*2024 FE_OFCC177_rank_3_
*2025 FE_OFCC176_rank_5_
*2026 FE_OFCC175_n3002
*2027 FE_OFCC174_rank_10_
*2028 FE_OFCC173_rank_9_
*2029 FE_OFCC172_rank_11_
*2030 FE_OFCC171_rank_7_
*2031 FE_OFCC170_rank_6_
*2032 FE_OFCC169_rank_8_
*2033 FE_OFCC168_n3001
*2034 FE_OFCC167_rank_13_
*2035 FE_OFCC166_rank_12_
*2036 FE_OFCC165_rank_14_
*2037 FE_OFCC164_rank_23_
*2038 FE_OFCC163_rank_21_
*2039 FE_OFCC162_rank_22_
*2040 FE_OFCC140_mem_50_
*2041 FE_OFCC138_mem_52_
*2042 FE_OFCC136_mem_54_
*2043 FE_OFCC135_mem_55_
*2044 FE_OFCC134_mem_56_
*2045 FE_OFCC133_mem_57_
*2046 FE_OFCC132_mem_58_
*2047 FE_OFCC131_mem_59_
*2048 FE_OFCC130_mem_60_
*2049 FE_OFCC129_mem_61_
*2050 FE_OFCC128_mem_62_
*2051 FE_OFCC126_matchN_9_
*2052 FE_OFCC125_matchN_10_
*2053 FE_OFCC124_matchN_11_
*2054 FE_OFCC123_mem_80_
*2055 FE_OFCC122_mem_81_
*2056 FE_OFCC121_mem_82_
*2057 FE_OFCC120_mem_83_
*2058 FE_OFCC119_mem_84_
*2059 FE_OFCC118_mem_85_
*2060 FE_OFCC117_mem_86_
*2061 FE_OFCC116_mem_87_
*2062 FE_OFCC115_mem_88_
*2063 FE_OFCC114_mem_89_
*2064 FE_OFCC113_mem_90_
*2065 FE_OFCC112_mem_91_
*2066 FE_OFCC111_mem_92_
*2067 FE_OFCC110_mem_93_
*2068 FE_OFCC109_mem_94_
*2069 FE_OFCC108_mem_95_
*2070 FE_OFCC107_matchN_15_
*2071 FE_OFCC106_matchN_16_
*2072 FE_OFCC105_matchN_17_
*2073 FE_OFCC104_n2999
*2074 FE_OFCC103_m
*2075 FE_OFCC102_mem_96_
*2076 FE_OFCC101_mem_97_
*2077 FE_OFCC100_mem_98_
*2078 FE_OFCC99_mem_99_